data_e+0.8-opt
_audit_creation_date              2024-12-22
_audit_creation_method            'Materials Studio'
_symmetry_space_group_name_H-M    'P1'
_symmetry_Int_Tables_number       1
_symmetry_cell_setting            triclinic
loop_
_symmetry_equiv_pos_as_xyz
  x,y,z
_cell_length_a                    8.3946
_cell_length_b                    8.3946
_cell_length_c                    20.0374
_cell_angle_alpha                 90.0000
_cell_angle_beta                  90.0000
_cell_angle_gamma                 90.0000
loop_
_atom_site_label
_atom_site_type_symbol
_atom_site_fract_x
_atom_site_fract_y
_atom_site_fract_z
_atom_site_U_iso_or_equiv
_atom_site_adp_type
_atom_site_occupancy
C001   C     0.50047   0.08431   0.13882   1.00000  Uiso   1.00
C002   C     0.35405   0.16605   0.13877   1.00000  Uiso   1.00
C003   C     0.64687   0.16606   0.13844   1.00000  Uiso   1.00
C004   C     0.79585   0.91491   0.13816   1.00000  Uiso   1.00
C005   C     0.79581   0.08139   0.13814   1.00000  Uiso   1.00
C006   C     0.91714   0.20285   0.13831   1.00000  Uiso   1.00
C007   C     0.83244   0.35154   0.13881   1.00000  Uiso   1.00
C008   C     0.20508   0.08138   0.13841   1.00000  Uiso   1.00
C009   C     0.08377   0.20284   0.13846   1.00000  Uiso   1.00
C010   C     0.16846   0.35155   0.13908   1.00000  Uiso   1.00
C011   C     0.08678   0.49812   0.13932   1.00000  Uiso   1.00
C012   C     0.16839   0.64473   0.13889   1.00000  Uiso   1.00
C013   C     0.35400   0.83017   0.13874   1.00000  Uiso   1.00
C014   C     0.20505   0.91489   0.13837   1.00000  Uiso   1.00
C015   C     0.08376   0.79344   0.13832   1.00000  Uiso   1.00
C016   C     0.64689   0.83021   0.13843   1.00000  Uiso   1.00
C017   C     0.83256   0.64474   0.13858   1.00000  Uiso   1.00
C018   C     0.91716   0.79346   0.13820   1.00000  Uiso   1.00
C019   C     0.50044   0.91193   0.13885   1.00000  Uiso   1.00
C020   C     0.91412   0.49812   0.13916   1.00000  Uiso   1.00
N001   N     0.66808   0.33009   0.13851   1.00000  Uiso   1.00
N002   N     0.33285   0.33007   0.13888   1.00000  Uiso   1.00
N003   N     0.33279   0.66616   0.13869   1.00000  Uiso   1.00
N004   N     0.66817   0.66623   0.13810   1.00000  Uiso   1.00
N005   N     0.50322   0.50628   0.23666   1.00000  Uiso   1.00
Fe001  Fe    0.50071   0.49826   0.14839   1.00000  Uiso   1.00
O001   O     0.49932   0.61912   0.27533   1.00000  Uiso   1.00
O002   O     0.51330   0.35012   0.27031   1.00000  Uiso   1.00
H001   H     0.51631   0.38188   0.31756   1.00000  Uiso   1.00
loop_
_geom_bond_atom_site_label_1
_geom_bond_atom_site_label_2
_geom_bond_distance
_geom_bond_site_symmetry_2
_ccdc_geom_bond_type
C001   C002    1.408   .     D
C001   C003    1.408   .     S
C001   C019    1.447   1_545 S
C002   C008    1.438   .     S
C002   N002    1.388   .     S
C003   C005    1.438   .     D
C003   N001    1.388   .     S
C004   C005    1.398   1_565 S
C004   C016    1.438   .     D
C004   C018    1.441   .     S
C005   C004    1.398   1_545 S
C005   C006    1.441   .     S
C006   C007    1.437   .     S
C006   C009    1.399   1_655 D
C007   C020    1.409   .     S
C007   N001    1.391   .     D
C008   C009    1.441   .     S
C008   C014    1.398   1_545 D
C009   C006    1.399   1_455 D
C009   C010    1.437   .     S
C010   C011    1.409   .     S
C010   N002    1.392   .     D
C011   C012    1.409   .     S
C011   C020    1.449   1_455 D
C012   C015    1.436   .     S
C012   N003    1.392   .     D
C013   C014    1.438   .     S
C013   C019    1.408   .     D
C013   N003    1.388   .     S
C014   C008    1.398   1_565 D
C014   C015    1.441   .     S
C015   C018    1.399   1_455 D
C016   C019    1.408   .     S
C016   N004    1.388   .     S
C017   C018    1.436   .     S
C017   C020    1.408   .     S
C017   N004    1.392   .     D
C018   C015    1.399   1_655 D
C019   C001    1.447   1_565 S
C020   C011    1.449   1_655 D
N001   Fe001   2.002   .     S
N002   Fe001   2.004   .     S
N003   Fe001   2.003   .     S
N004   Fe001   2.002   .     S
N005   Fe001   1.770   .     S
N005   O001    1.224   .     D
N005   O002    1.477   .     S
O002   H001    0.984   .     S
