data_e-0.8-opt
_audit_creation_date              2024-12-22
_audit_creation_method            'Materials Studio'
_symmetry_space_group_name_H-M    'P1'
_symmetry_Int_Tables_number       1
_symmetry_cell_setting            triclinic
loop_
_symmetry_equiv_pos_as_xyz
  x,y,z
_cell_length_a                    12.4809
_cell_length_b                    12.7442
_cell_length_c                    19.9998
_cell_angle_alpha                 90.0000
_cell_angle_beta                  90.0000
_cell_angle_gamma                 90.0000
loop_
_atom_site_label
_atom_site_type_symbol
_atom_site_fract_x
_atom_site_fract_y
_atom_site_fract_z
_atom_site_U_iso_or_equiv
_atom_site_adp_type
_atom_site_occupancy
C001   C     0.05029   0.04544   0.15530   1.00000  Uiso   1.00
C002   C     0.15068   0.10021   0.15491   1.00000  Uiso   1.00
C003   C     0.15008   0.21156   0.15351   1.00000  Uiso   1.00
C004   C     0.05027   0.26661   0.15248   1.00000  Uiso   1.00
C005   C     0.25153   0.04582   0.15600   1.00000  Uiso   1.00
C006   C     0.35166   0.10196   0.15697   1.00000  Uiso   1.00
C007   C     0.35063   0.21469   0.15624   1.00000  Uiso   1.00
C008   C     0.24927   0.26725   0.15390   1.00000  Uiso   1.00
C009   C     0.45171   0.04666   0.15862   1.00000  Uiso   1.00
C010   C     0.55032   0.10558   0.15946   1.00000  Uiso   1.00
C011   C     0.55035   0.22015   0.15967   1.00000  Uiso   1.00
C012   C     0.44849   0.27515   0.15839   1.00000  Uiso   1.00
C013   C     0.64894   0.04665   0.15916   1.00000  Uiso   1.00
C014   C     0.74897   0.10201   0.15785   1.00000  Uiso   1.00
C015   C     0.75001   0.21475   0.15710   1.00000  Uiso   1.00
C016   C     0.65222   0.27532   0.15889   1.00000  Uiso   1.00
C017   C     0.84905   0.04583   0.15693   1.00000  Uiso   1.00
C018   C     0.94989   0.10024   0.15551   1.00000  Uiso   1.00
C019   C     0.95047   0.21157   0.15412   1.00000  Uiso   1.00
C020   C     0.85130   0.26730   0.15483   1.00000  Uiso   1.00
C021   C     0.05025   0.37814   0.15094   1.00000  Uiso   1.00
C022   C     0.14850   0.43423   0.15086   1.00000  Uiso   1.00
C023   C     0.14851   0.54542   0.15092   1.00000  Uiso   1.00
C024   C     0.05025   0.60150   0.15103   1.00000  Uiso   1.00
C025   C     0.24747   0.37857   0.15286   1.00000  Uiso   1.00
C026   C     0.34502   0.43375   0.15543   1.00000  Uiso   1.00
C027   C     0.34504   0.54588   0.15560   1.00000  Uiso   1.00
C028   C     0.24749   0.60107   0.15302   1.00000  Uiso   1.00
C029   C     0.75554   0.43374   0.15611   1.00000  Uiso   1.00
C030   C     0.75553   0.54590   0.15623   1.00000  Uiso   1.00
C031   C     0.85304   0.37860   0.15368   1.00000  Uiso   1.00
C032   C     0.95202   0.43425   0.15140   1.00000  Uiso   1.00
C033   C     0.95202   0.54540   0.15145   1.00000  Uiso   1.00
C034   C     0.85303   0.60104   0.15379   1.00000  Uiso   1.00
C035   C     0.05028   0.71304   0.15263   1.00000  Uiso   1.00
C036   C     0.15009   0.76807   0.15368   1.00000  Uiso   1.00
C037   C     0.05029   0.93420   0.15535   1.00000  Uiso   1.00
C038   C     0.24929   0.71239   0.15413   1.00000  Uiso   1.00
C039   C     0.35065   0.76492   0.15649   1.00000  Uiso   1.00
C040   C     0.35167   0.87766   0.15710   1.00000  Uiso   1.00
C041   C     0.25154   0.93381   0.15606   1.00000  Uiso   1.00
C042   C     0.44852   0.70447   0.15876   1.00000  Uiso   1.00
C043   C     0.55035   0.75947   0.15997   1.00000  Uiso   1.00
C044   C     0.55032   0.87406   0.15961   1.00000  Uiso   1.00
C045   C     0.45172   0.93297   0.15870   1.00000  Uiso   1.00
C046   C     0.65221   0.70430   0.15919   1.00000  Uiso   1.00
C047   C     0.75000   0.76487   0.15731   1.00000  Uiso   1.00
C048   C     0.74896   0.87762   0.15797   1.00000  Uiso   1.00
C049   C     0.64894   0.93298   0.15923   1.00000  Uiso   1.00
C050   C     0.85129   0.71235   0.15501   1.00000  Uiso   1.00
C051   C     0.95047   0.76807   0.15426   1.00000  Uiso   1.00
C052   C     0.84905   0.93380   0.15698   1.00000  Uiso   1.00
C053   C     0.15069   0.87943   0.15502   1.00000  Uiso   1.00
C054   C     0.94989   0.87941   0.15560   1.00000  Uiso   1.00
N001   N     0.44356   0.38442   0.15862   1.00000  Uiso   1.00
N002   N     0.44362   0.59515   0.15909   1.00000  Uiso   1.00
N003   N     0.65722   0.38442   0.15918   1.00000  Uiso   1.00
N004   N     0.65720   0.59518   0.15952   1.00000  Uiso   1.00
N005   N     0.54524   0.48688   0.26723   1.00000  Uiso   1.00
O001   O     0.64960   0.48888   0.29970   1.00000  Uiso   1.00
Fe001  Fe    0.55054   0.48974   0.16956   1.00000  Uiso   1.00
H001   H     0.63557   0.48710   0.34809   1.00000  Uiso   1.00
H002   H     0.50256   0.55063   0.28419   1.00000  Uiso   1.00
H003   H     0.50673   0.41956   0.28240   1.00000  Uiso   1.00
loop_
_geom_bond_atom_site_label_1
_geom_bond_atom_site_label_2
_geom_bond_distance
_geom_bond_site_symmetry_2
_ccdc_geom_bond_type
C001   C002    1.434   .     D
C001   C018    1.435   1_455 S
C001   C037    1.418   1_545 S
C002   C003    1.419   .     S
C002   C005    1.437   .     S
C003   C004    1.430   .     D
C003   C008    1.427   .     S
C004   C019    1.430   1_455 S
C004   C021    1.422   .     S
C005   C006    1.440   .     S
C005   C041    1.428   1_545 D
C006   C007    1.437   .     S
C006   C009    1.434   .     D
C007   C008    1.432   .     S
C007   C012    1.445   .     D
C008   C025    1.419   .     D
C009   C010    1.442   .     S
C009   C045    1.449   1_545 S
C010   C011    1.460   .     D
C010   C013    1.442   .     S
C011   C012    1.452   .     S
C011   C016    1.453   .     S
C012   N001    1.394   .     S
C013   C014    1.434   .     D
C013   C049    1.449   1_545 S
C014   C015    1.437   .     S
C014   C017    1.440   .     S
C015   C016    1.445   .     S
C015   C020    1.431   .     D
C016   N003    1.392   .     D
C017   C018    1.437   .     S
C017   C052    1.428   1_545 D
C018   C001    1.435   1_655 S
C018   C019    1.419   .     D
C019   C004    1.430   1_655 S
C019   C020    1.427   .     S
C020   C031    1.419   .     S
C021   C022    1.419   .     D
C021   C032    1.419   1_455 S
C022   C023    1.417   .     S
C022   C025    1.425   .     S
C023   C024    1.419   .     D
C023   C028    1.425   .     S
C024   C033    1.419   1_455 S
C024   C035    1.422   .     S
C025   C026    1.407   .     S
C026   C027    1.429   .     S
C026   N001    1.383   .     D
C027   C028    1.407   .     S
C027   N002    1.383   .     D
C028   C038    1.419   .     D
C029   C030    1.429   .     S
C029   C031    1.406   .     D
C029   N003    1.380   .     S
C030   C034    1.406   .     S
C030   N004    1.380   .     D
C031   C032    1.425   .     S
C032   C021    1.419   1_655 S
C032   C033    1.417   .     D
C033   C024    1.419   1_655 S
C033   C034    1.425   .     S
C034   C050    1.419   .     D
C035   C036    1.430   .     S
C035   C051    1.430   1_455 D
C036   C038    1.427   .     S
C036   C053    1.419   .     D
C037   C001    1.418   1_565 S
C037   C053    1.434   .     S
C037   C054    1.435   1_455 D
C038   C039    1.432   .     S
C039   C040    1.437   .     S
C039   C042    1.445   .     D
C040   C041    1.440   .     S
C040   C045    1.434   .     D
C041   C005    1.428   1_565 D
C041   C053    1.437   .     S
C042   C043    1.452   .     S
C042   N002    1.394   .     S
C043   C044    1.460   .     S
C043   C046    1.453   .     D
C044   C045    1.442   .     S
C044   C049    1.442   .     D
C045   C009    1.449   1_565 S
C046   C047    1.445   .     S
C046   N004    1.392   .     S
C047   C048    1.437   .     D
C047   C050    1.431   .     S
C048   C049    1.434   .     S
C048   C052    1.440   .     S
C049   C013    1.449   1_565 S
C050   C051    1.427   .     S
C051   C035    1.430   1_655 D
C051   C054    1.419   .     S
C052   C017    1.428   1_565 D
C052   C054    1.437   .     S
C054   C037    1.435   1_655 D
N001   Fe001   1.906   .     S
N002   Fe001   1.905   .     S
N003   Fe001   1.902   .     S
N004   Fe001   1.902   .     S
N005   O001    1.456   .     S
N005   Fe001   1.955   .     S
N005   H002    1.029   .     S
N005   H003    1.029   .     S
O001   H001    0.984   .     S
