data_e+0.4-opt
_audit_creation_date              2024-12-22
_audit_creation_method            'Materials Studio'
_symmetry_space_group_name_H-M    'P1'
_symmetry_Int_Tables_number       1
_symmetry_cell_setting            triclinic
loop_
_symmetry_equiv_pos_as_xyz
  x,y,z
_cell_length_a                    8.3976
_cell_length_b                    8.3976
_cell_length_c                    20.0444
_cell_angle_alpha                 90.0000
_cell_angle_beta                  90.0000
_cell_angle_gamma                 90.0000
loop_
_atom_site_label
_atom_site_type_symbol
_atom_site_fract_x
_atom_site_fract_y
_atom_site_fract_z
_atom_site_U_iso_or_equiv
_atom_site_adp_type
_atom_site_occupancy
C001   C     0.50301   0.08498   0.13603   1.00000  Uiso   1.00
C002   C     0.35670   0.16695   0.13590   1.00000  Uiso   1.00
C003   C     0.64936   0.16692   0.13581   1.00000  Uiso   1.00
C004   C     0.79807   0.91460   0.13629   1.00000  Uiso   1.00
C005   C     0.79807   0.08254   0.13612   1.00000  Uiso   1.00
C006   C     0.91908   0.20355   0.13595   1.00000  Uiso   1.00
C007   C     0.83472   0.35223   0.13559   1.00000  Uiso   1.00
C008   C     0.20797   0.08258   0.13621   1.00000  Uiso   1.00
C009   C     0.08702   0.20356   0.13595   1.00000  Uiso   1.00
C010   C     0.17141   0.35229   0.13552   1.00000  Uiso   1.00
C011   C     0.08939   0.49857   0.13567   1.00000  Uiso   1.00
C012   C     0.17133   0.64491   0.13597   1.00000  Uiso   1.00
C013   C     0.35672   0.83030   0.13624   1.00000  Uiso   1.00
C014   C     0.20794   0.91461   0.13639   1.00000  Uiso   1.00
C015   C     0.08704   0.79360   0.13628   1.00000  Uiso   1.00
C016   C     0.64929   0.83026   0.13615   1.00000  Uiso   1.00
C017   C     0.83474   0.64491   0.13597   1.00000  Uiso   1.00
C018   C     0.91899   0.79359   0.13624   1.00000  Uiso   1.00
C019   C     0.50302   0.91230   0.13621   1.00000  Uiso   1.00
C020   C     0.91668   0.49858   0.13571   1.00000  Uiso   1.00
N001   N     0.66927   0.33237   0.13542   1.00000  Uiso   1.00
N002   N     0.33684   0.33243   0.13547   1.00000  Uiso   1.00
N003   N     0.33693   0.66481   0.13607   1.00000  Uiso   1.00
N004   N     0.66911   0.66481   0.13598   1.00000  Uiso   1.00
N005   N     0.43281   0.52716   0.31618   1.00000  Uiso   1.00
Fe001  Fe    0.50323   0.49850   0.13564   1.00000  Uiso   1.00
O001   O     0.53971   0.46232   0.28550   1.00000  Uiso   1.00
O002   O     0.43730   0.62364   0.36285   1.00000  Uiso   1.00
O003   O     0.27495   0.48445   0.29246   1.00000  Uiso   1.00
H001   H     0.20599   0.55592   0.31839   1.00000  Uiso   1.00
loop_
_geom_bond_atom_site_label_1
_geom_bond_atom_site_label_2
_geom_bond_distance
_geom_bond_site_symmetry_2
_ccdc_geom_bond_type
C001   C002    1.408   .     D
C001   C003    1.409   .     S
C001   C019    1.450   1_545 S
C002   C008    1.436   .     S
C002   N002    1.400   .     S
C003   C005    1.436   .     D
C003   N001    1.399   .     S
C004   C005    1.410   1_565 S
C004   C016    1.436   .     D
C004   C018    1.437   .     S
C005   C004    1.410   1_545 S
C005   C006    1.437   .     S
C006   C007    1.436   .     S
C006   C009    1.410   1_655 D
C007   C020    1.409   .     S
C007   N001    1.399   .     D
C008   C009    1.437   .     S
C008   C014    1.411   1_545 D
C009   C006    1.410   1_455 D
C009   C010    1.436   .     S
C010   C011    1.408   .     S
C010   N002    1.399   .     D
C011   C012    1.408   .     S
C011   C020    1.450   1_455 D
C012   C015    1.435   .     S
C012   N003    1.401   .     D
C013   C014    1.436   .     S
C013   C019    1.408   .     D
C013   N003    1.400   .     S
C014   C008    1.411   1_565 D
C014   C015    1.437   .     S
C015   C018    1.411   1_455 D
C016   C019    1.408   .     S
C016   N004    1.399   .     S
C017   C018    1.435   .     S
C017   C020    1.408   .     S
C017   N004    1.401   .     D
C018   C015    1.411   1_655 D
C019   C001    1.450   1_565 S
C020   C011    1.450   1_655 D
N001   Fe001   1.972   .     S
N002   Fe001   1.974   .     S
N003   Fe001   1.975   .     S
N004   Fe001   1.972   .     S
N005   O001    1.217   .     D
N005   O002    1.238   .     S
N005   O003    1.453   .     S
O003   H001    0.983   .     S
