data_e+0.4-opt
_audit_creation_date              2024-12-22
_audit_creation_method            'Materials Studio'
_symmetry_space_group_name_H-M    'P1'
_symmetry_Int_Tables_number       1
_symmetry_cell_setting            triclinic
loop_
_symmetry_equiv_pos_as_xyz
  x,y,z
_cell_length_a                    8.3964
_cell_length_b                    8.3964
_cell_length_c                    20.0417
_cell_angle_alpha                 90.0000
_cell_angle_beta                  90.0000
_cell_angle_gamma                 90.0000
loop_
_atom_site_label
_atom_site_type_symbol
_atom_site_fract_x
_atom_site_fract_y
_atom_site_fract_z
_atom_site_U_iso_or_equiv
_atom_site_adp_type
_atom_site_occupancy
C001   C     0.49856   0.07232   0.13641   1.00000  Uiso   1.00
C002   C     0.35209   0.15432   0.13615   1.00000  Uiso   1.00
C003   C     0.64504   0.15423   0.13600   1.00000  Uiso   1.00
C004   C     0.79356   0.90256   0.13577   1.00000  Uiso   1.00
C005   C     0.79398   0.06959   0.13568   1.00000  Uiso   1.00
C006   C     0.91503   0.19048   0.13559   1.00000  Uiso   1.00
C007   C     0.83069   0.33932   0.13584   1.00000  Uiso   1.00
C008   C     0.20313   0.06966   0.13573   1.00000  Uiso   1.00
C009   C     0.08221   0.19052   0.13564   1.00000  Uiso   1.00
C010   C     0.16660   0.33943   0.13600   1.00000  Uiso   1.00
C011   C     0.08492   0.48598   0.13614   1.00000  Uiso   1.00
C012   C     0.16689   0.63239   0.13598   1.00000  Uiso   1.00
C013   C     0.35188   0.81811   0.13632   1.00000  Uiso   1.00
C014   C     0.20342   0.90261   0.13567   1.00000  Uiso   1.00
C015   C     0.08192   0.78134   0.13547   1.00000  Uiso   1.00
C016   C     0.64511   0.81818   0.13650   1.00000  Uiso   1.00
C017   C     0.83040   0.63236   0.13610   1.00000  Uiso   1.00
C018   C     0.91521   0.78123   0.13554   1.00000  Uiso   1.00
C019   C     0.49851   0.89979   0.13664   1.00000  Uiso   1.00
C020   C     0.91237   0.48594   0.13614   1.00000  Uiso   1.00
N001   N     0.66583   0.31886   0.13607   1.00000  Uiso   1.00
N002   N     0.33142   0.31892   0.13642   1.00000  Uiso   1.00
N003   N     0.33126   0.65313   0.13683   1.00000  Uiso   1.00
N004   N     0.66579   0.65298   0.13707   1.00000  Uiso   1.00
N005   N     0.50533   0.47347   0.24377   1.00000  Uiso   1.00
Fe001  Fe    0.49915   0.48841   0.14240   1.00000  Uiso   1.00
O001   O     0.48437   0.60365   0.27988   1.00000  Uiso   1.00
H001   H     0.41840   0.38771   0.25117   1.00000  Uiso   1.00
H002   H     0.61660   0.42218   0.24975   1.00000  Uiso   1.00
loop_
_geom_bond_atom_site_label_1
_geom_bond_atom_site_label_2
_geom_bond_distance
_geom_bond_site_symmetry_2
_ccdc_geom_bond_type
C001   C002    1.409   .     D
C001   C003    1.409   .     S
C001   C019    1.449   1_545 S
C002   C008    1.439   .     S
C002   N002    1.393   .     S
C003   C005    1.438   .     D
C003   N001    1.393   .     S
C004   C005    1.403   1_565 S
C004   C016    1.434   .     D
C004   C018    1.443   .     S
C005   C004    1.403   1_545 S
C005   C006    1.436   .     S
C006   C007    1.436   .     S
C006   C009    1.404   1_655 D
C007   C020    1.409   .     S
C007   N001    1.395   .     D
C008   C009    1.435   .     S
C008   C014    1.403   1_545 D
C009   C006    1.404   1_455 D
C009   C010    1.437   .     S
C010   C011    1.409   .     S
C010   N002    1.395   .     D
C011   C012    1.409   .     S
C011   C020    1.449   1_455 D
C012   C015    1.440   .     S
C012   N003    1.391   .     D
C013   C014    1.434   .     S
C013   C019    1.409   .     D
C013   N003    1.396   .     S
C014   C008    1.403   1_565 D
C014   C015    1.441   .     S
C015   C018    1.400   1_455 D
C016   C019    1.409   .     S
C016   N004    1.398   .     S
C017   C018    1.439   .     S
C017   C020    1.409   .     S
C017   N004    1.393   .     D
C018   C015    1.400   1_655 D
C019   C001    1.449   1_565 S
C020   C011    1.449   1_655 D
N001   Fe001   2.000   .     S
N002   Fe001   2.006   .     S
N003   Fe001   1.978   .     S
N004   Fe001   1.969   .     S
N005   Fe001   2.036   .     S
N005   O001    1.323   .     S
N005   H001    1.036   .     S
N005   H002    1.036   .     S
