data_e-0.8-opt
_audit_creation_date              2024-12-22
_audit_creation_method            'Materials Studio'
_symmetry_space_group_name_H-M    'P1'
_symmetry_Int_Tables_number       1
_symmetry_cell_setting            triclinic
loop_
_symmetry_equiv_pos_as_xyz
  x,y,z
_cell_length_a                    8.3949
_cell_length_b                    8.3949
_cell_length_c                    20.0381
_cell_angle_alpha                 90.0000
_cell_angle_beta                  90.0000
_cell_angle_gamma                 90.0000
loop_
_atom_site_label
_atom_site_type_symbol
_atom_site_fract_x
_atom_site_fract_y
_atom_site_fract_z
_atom_site_U_iso_or_equiv
_atom_site_adp_type
_atom_site_occupancy
C001   C     0.50350   0.08114   0.14001   1.00000  Uiso   1.00
C002   C     0.35684   0.16260   0.14066   1.00000  Uiso   1.00
C003   C     0.64984   0.16306   0.13901   1.00000  Uiso   1.00
C004   C     0.79939   0.91135   0.13964   1.00000  Uiso   1.00
C005   C     0.79874   0.07871   0.13870   1.00000  Uiso   1.00
C006   C     0.91962   0.19962   0.13881   1.00000  Uiso   1.00
C007   C     0.83519   0.34854   0.13933   1.00000  Uiso   1.00
C008   C     0.20813   0.07805   0.13932   1.00000  Uiso   1.00
C009   C     0.08696   0.19897   0.13959   1.00000  Uiso   1.00
C010   C     0.17131   0.34774   0.14088   1.00000  Uiso   1.00
C011   C     0.08982   0.49447   0.14008   1.00000  Uiso   1.00
C012   C     0.17182   0.64071   0.13802   1.00000  Uiso   1.00
C013   C     0.35761   0.82654   0.13772   1.00000  Uiso   1.00
C014   C     0.20876   0.91059   0.13800   1.00000  Uiso   1.00
C015   C     0.08770   0.78956   0.13819   1.00000  Uiso   1.00
C016   C     0.65059   0.82701   0.14089   1.00000  Uiso   1.00
C017   C     0.83559   0.64150   0.14131   1.00000  Uiso   1.00
C018   C     0.92026   0.79018   0.13965   1.00000  Uiso   1.00
C019   C     0.50390   0.90850   0.13969   1.00000  Uiso   1.00
C020   C     0.91712   0.49486   0.14060   1.00000  Uiso   1.00
N001   N     0.67056   0.32768   0.13850   1.00000  Uiso   1.00
N002   N     0.33588   0.32729   0.14198   1.00000  Uiso   1.00
N003   N     0.33682   0.66153   0.13618   1.00000  Uiso   1.00
N004   N     0.67093   0.66251   0.14253   1.00000  Uiso   1.00
N005   N     0.49160   0.50296   0.23979   1.00000  Uiso   1.00
Fe001  Fe    0.50189   0.49590   0.15103   1.00000  Uiso   1.00
H001   H     0.53240   0.60034   0.26524   1.00000  Uiso   1.00
H002   H     0.40411   0.44303   0.26484   1.00000  Uiso   1.00
loop_
_geom_bond_atom_site_label_1
_geom_bond_atom_site_label_2
_geom_bond_distance
_geom_bond_site_symmetry_2
_ccdc_geom_bond_type
C001   C002    1.408   .     D
C001   C003    1.408   .     S
C001   C019    1.449   1_545 S
C002   C008    1.436   .     S
C002   N002    1.394   .     S
C003   C005    1.437   .     D
C003   N001    1.393   .     S
C004   C005    1.405   1_565 S
C004   C016    1.436   .     D
C004   C018    1.437   .     S
C005   C004    1.405   1_545 S
C005   C006    1.435   .     S
C006   C007    1.437   .     S
C006   C009    1.405   1_655 D
C007   C020    1.408   .     S
C007   N001    1.393   .     D
C008   C009    1.437   .     S
C008   C014    1.406   1_545 D
C009   C006    1.405   1_455 D
C009   C010    1.436   .     S
C010   C011    1.409   .     S
C010   N002    1.392   .     D
C011   C012    1.408   .     S
C011   C020    1.450   1_455 D
C012   C015    1.435   .     S
C012   N003    1.397   .     D
C013   C014    1.435   .     S
C013   C019    1.408   .     D
C013   N003    1.396   .     S
C014   C008    1.406   1_565 D
C014   C015    1.437   .     S
C015   C018    1.406   1_455 D
C016   C019    1.409   .     S
C016   N004    1.392   .     S
C017   C018    1.437   .     S
C017   C020    1.409   .     S
C017   N004    1.394   .     D
C018   C015    1.406   1_655 D
C019   C001    1.449   1_565 S
C020   C011    1.450   1_655 D
N001   Fe001   2.016   .     S
N002   Fe001   1.995   .     S
N003   Fe001   1.985   .     S
N004   Fe001   2.000   .     S
N005   Fe001   1.782   .     S
N005   H001    1.023   .     S
N005   H002    1.022   .     S
