data_e+0.8-opt
_audit_creation_date              2024-12-22
_audit_creation_method            'Materials Studio'
_symmetry_space_group_name_H-M    'P1'
_symmetry_Int_Tables_number       1
_symmetry_cell_setting            triclinic
loop_
_symmetry_equiv_pos_as_xyz
  x,y,z
_cell_length_a                    12.4752
_cell_length_b                    12.7382
_cell_length_c                    19.9906
_cell_angle_alpha                 90.0000
_cell_angle_beta                  90.0000
_cell_angle_gamma                 90.0000
loop_
_atom_site_label
_atom_site_type_symbol
_atom_site_fract_x
_atom_site_fract_y
_atom_site_fract_z
_atom_site_U_iso_or_equiv
_atom_site_adp_type
_atom_site_occupancy
C001   C     0.05197   0.04527   0.15415   1.00000  Uiso   1.00
C002   C     0.15238   0.10006   0.15412   1.00000  Uiso   1.00
C003   C     0.15175   0.21138   0.15351   1.00000  Uiso   1.00
C004   C     0.05197   0.26645   0.15302   1.00000  Uiso   1.00
C005   C     0.25323   0.04564   0.15435   1.00000  Uiso   1.00
C006   C     0.35335   0.10184   0.15474   1.00000  Uiso   1.00
C007   C     0.35225   0.21457   0.15436   1.00000  Uiso   1.00
C008   C     0.25104   0.26720   0.15323   1.00000  Uiso   1.00
C009   C     0.45337   0.04650   0.15548   1.00000  Uiso   1.00
C010   C     0.55196   0.10557   0.15614   1.00000  Uiso   1.00
C011   C     0.55194   0.22011   0.15686   1.00000  Uiso   1.00
C012   C     0.45015   0.27522   0.15592   1.00000  Uiso   1.00
C013   C     0.65056   0.04651   0.15557   1.00000  Uiso   1.00
C014   C     0.75058   0.10184   0.15494   1.00000  Uiso   1.00
C015   C     0.75167   0.21456   0.15474   1.00000  Uiso   1.00
C016   C     0.65372   0.27517   0.15623   1.00000  Uiso   1.00
C017   C     0.85071   0.04564   0.15450   1.00000  Uiso   1.00
C018   C     0.95156   0.10006   0.15422   1.00000  Uiso   1.00
C019   C     0.95218   0.21138   0.15373   1.00000  Uiso   1.00
C020   C     0.85289   0.26719   0.15377   1.00000  Uiso   1.00
C021   C     0.05196   0.37810   0.15191   1.00000  Uiso   1.00
C022   C     0.15023   0.43403   0.15123   1.00000  Uiso   1.00
C023   C     0.15022   0.54525   0.15091   1.00000  Uiso   1.00
C024   C     0.05196   0.60119   0.15130   1.00000  Uiso   1.00
C025   C     0.24912   0.37840   0.15185   1.00000  Uiso   1.00
C026   C     0.34700   0.43344   0.15258   1.00000  Uiso   1.00
C027   C     0.34699   0.54587   0.15215   1.00000  Uiso   1.00
C028   C     0.24911   0.60090   0.15119   1.00000  Uiso   1.00
C029   C     0.75692   0.43345   0.15388   1.00000  Uiso   1.00
C030   C     0.75693   0.54586   0.15344   1.00000  Uiso   1.00
C031   C     0.85482   0.37839   0.15289   1.00000  Uiso   1.00
C032   C     0.95369   0.43403   0.15190   1.00000  Uiso   1.00
C033   C     0.95369   0.54525   0.15158   1.00000  Uiso   1.00
C034   C     0.85482   0.60091   0.15223   1.00000  Uiso   1.00
C035   C     0.05196   0.71285   0.15208   1.00000  Uiso   1.00
C036   C     0.15175   0.76792   0.15257   1.00000  Uiso   1.00
C037   C     0.05197   0.93402   0.15383   1.00000  Uiso   1.00
C038   C     0.25104   0.71210   0.15227   1.00000  Uiso   1.00
C039   C     0.35223   0.76475   0.15345   1.00000  Uiso   1.00
C040   C     0.35334   0.87747   0.15419   1.00000  Uiso   1.00
C041   C     0.25323   0.93366   0.15405   1.00000  Uiso   1.00
C042   C     0.45014   0.70413   0.15494   1.00000  Uiso   1.00
C043   C     0.55194   0.75921   0.15593   1.00000  Uiso   1.00
C044   C     0.55196   0.87374   0.15560   1.00000  Uiso   1.00
C045   C     0.45337   0.93280   0.15520   1.00000  Uiso   1.00
C046   C     0.65373   0.70418   0.15524   1.00000  Uiso   1.00
C047   C     0.75168   0.76476   0.15383   1.00000  Uiso   1.00
C048   C     0.75058   0.87747   0.15438   1.00000  Uiso   1.00
C049   C     0.65056   0.93280   0.15529   1.00000  Uiso   1.00
C050   C     0.85289   0.71211   0.15281   1.00000  Uiso   1.00
C051   C     0.95218   0.76791   0.15279   1.00000  Uiso   1.00
C052   C     0.85071   0.93366   0.15420   1.00000  Uiso   1.00
C053   C     0.15238   0.87923   0.15352   1.00000  Uiso   1.00
C054   C     0.95156   0.87924   0.15362   1.00000  Uiso   1.00
N001   N     0.44464   0.38414   0.15603   1.00000  Uiso   1.00
N002   N     0.44460   0.59524   0.15515   1.00000  Uiso   1.00
N003   N     0.65921   0.38412   0.15652   1.00000  Uiso   1.00
N004   N     0.65925   0.59525   0.15560   1.00000  Uiso   1.00
N005   N     0.55729   0.49290   0.25779   1.00000  Uiso   1.00
Fe001  Fe    0.55193   0.48997   0.16987   1.00000  Uiso   1.00
O001   O     0.63251   0.49492   0.29755   1.00000  Uiso   1.00
O002   O     0.44876   0.49522   0.29250   1.00000  Uiso   1.00
H001   H     0.47122   0.49910   0.33948   1.00000  Uiso   1.00
loop_
_geom_bond_atom_site_label_1
_geom_bond_atom_site_label_2
_geom_bond_distance
_geom_bond_site_symmetry_2
_ccdc_geom_bond_type
C001   C002    1.434   .     D
C001   C018    1.434   1_455 S
C001   C037    1.417   1_545 S
C002   C003    1.418   .     S
C002   C005    1.437   .     S
C003   C004    1.429   .     D
C003   C008    1.428   .     S
C004   C019    1.429   1_455 S
C004   C021    1.422   .     S
C005   C006    1.440   .     S
C005   C041    1.426   1_545 D
C006   C007    1.436   .     S
C006   C009    1.433   .     D
C007   C008    1.430   .     S
C007   C012    1.446   .     D
C008   C025    1.417   .     D
C009   C010    1.442   .     S
C009   C045    1.448   1_545 S
C010   C011    1.459   .     D
C010   C013    1.442   .     S
C011   C012    1.451   .     S
C011   C016    1.451   .     S
C012   N001    1.389   .     S
C013   C014    1.433   .     D
C013   C049    1.448   1_545 S
C014   C015    1.436   .     S
C014   C017    1.440   .     S
C015   C016    1.446   .     S
C015   C020    1.430   .     D
C016   N003    1.390   .     D
C017   C018    1.437   .     S
C017   C052    1.426   1_545 D
C018   C001    1.434   1_655 S
C018   C019    1.418   .     D
C019   C004    1.429   1_655 S
C019   C020    1.428   .     S
C020   C031    1.417   .     S
C021   C022    1.418   .     D
C021   C032    1.418   1_455 S
C022   C023    1.417   .     S
C022   C025    1.423   .     S
C023   C024    1.418   .     D
C023   C028    1.423   .     S
C024   C033    1.418   1_455 S
C024   C035    1.422   .     S
C025   C026    1.408   .     S
C026   C027    1.432   .     S
C026   N001    1.372   .     D
C027   C028    1.408   .     S
C027   N002    1.372   .     D
C028   C038    1.417   .     D
C029   C030    1.432   .     S
C029   C031    1.409   .     D
C029   N003    1.372   .     S
C030   C034    1.408   .     S
C030   N004    1.372   .     D
C031   C032    1.423   .     S
C032   C021    1.418   1_655 S
C032   C033    1.417   .     D
C033   C024    1.418   1_655 S
C033   C034    1.423   .     S
C034   C050    1.417   .     D
C035   C036    1.429   .     S
C035   C051    1.429   1_455 D
C036   C038    1.428   .     S
C036   C053    1.418   .     D
C037   C001    1.417   1_565 S
C037   C053    1.434   .     S
C037   C054    1.434   1_455 D
C038   C039    1.430   .     S
C039   C040    1.436   .     S
C039   C042    1.445   .     D
C040   C041    1.439   .     S
C040   C045    1.433   .     D
C041   C005    1.426   1_565 D
C041   C053    1.437   .     S
C042   C043    1.451   .     S
C042   N002    1.389   .     S
C043   C044    1.459   .     S
C043   C046    1.451   .     D
C044   C045    1.442   .     S
C044   C049    1.442   .     D
C045   C009    1.448   1_565 S
C046   C047    1.445   .     S
C046   N004    1.389   .     S
C047   C048    1.436   .     D
C047   C050    1.430   .     S
C048   C049    1.433   .     S
C048   C052    1.440   .     S
C049   C013    1.448   1_565 S
C050   C051    1.428   .     S
C051   C035    1.429   1_655 D
C051   C054    1.418   .     S
C052   C017    1.426   1_565 D
C052   C054    1.437   .     S
C054   C037    1.434   1_655 D
N001   Fe001   1.920   .     S
N002   Fe001   1.918   .     S
N003   Fe001   1.918   .     S
N004   Fe001   1.916   .     S
N005   Fe001   1.759   .     S
N005   O001    1.230   .     D
N005   O002    1.522   .     S
O002   H001    0.981   .     S
