data_e-0.4-opt
_audit_creation_date              2024-12-22
_audit_creation_method            'Materials Studio'
_symmetry_space_group_name_H-M    'P1'
_symmetry_Int_Tables_number       1
_symmetry_cell_setting            triclinic
loop_
_symmetry_equiv_pos_as_xyz
  x,y,z
_cell_length_a                    8.3982
_cell_length_b                    8.3982
_cell_length_c                    20.0460
_cell_angle_alpha                 90.0000
_cell_angle_beta                  90.0000
_cell_angle_gamma                 90.0000
loop_
_atom_site_label
_atom_site_type_symbol
_atom_site_fract_x
_atom_site_fract_y
_atom_site_fract_z
_atom_site_U_iso_or_equiv
_atom_site_adp_type
_atom_site_occupancy
C001   C     0.49887   0.07274   0.13682   1.00000  Uiso   1.00
C002   C     0.35219   0.15435   0.13615   1.00000  Uiso   1.00
C003   C     0.64550   0.15440   0.13651   1.00000  Uiso   1.00
C004   C     0.79427   0.90297   0.13652   1.00000  Uiso   1.00
C005   C     0.79431   0.06998   0.13626   1.00000  Uiso   1.00
C006   C     0.91530   0.19120   0.13607   1.00000  Uiso   1.00
C007   C     0.83104   0.33988   0.13665   1.00000  Uiso   1.00
C008   C     0.20336   0.06997   0.13593   1.00000  Uiso   1.00
C009   C     0.08236   0.19119   0.13589   1.00000  Uiso   1.00
C010   C     0.16662   0.33984   0.13632   1.00000  Uiso   1.00
C011   C     0.08518   0.48660   0.13697   1.00000  Uiso   1.00
C012   C     0.16684   0.63320   0.13662   1.00000  Uiso   1.00
C013   C     0.35232   0.81868   0.13659   1.00000  Uiso   1.00
C014   C     0.20341   0.90298   0.13613   1.00000  Uiso   1.00
C015   C     0.08240   0.78178   0.13621   1.00000  Uiso   1.00
C016   C     0.64540   0.81863   0.13714   1.00000  Uiso   1.00
C017   C     0.83082   0.63318   0.13715   1.00000  Uiso   1.00
C018   C     0.91528   0.78177   0.13645   1.00000  Uiso   1.00
C019   C     0.49887   0.90032   0.13711   1.00000  Uiso   1.00
C020   C     0.91253   0.48660   0.13721   1.00000  Uiso   1.00
N001   N     0.66654   0.31865   0.13630   1.00000  Uiso   1.00
N002   N     0.33114   0.31858   0.13589   1.00000  Uiso   1.00
N003   N     0.33139   0.65454   0.13629   1.00000  Uiso   1.00
N004   N     0.66624   0.65443   0.13720   1.00000  Uiso   1.00
N005   N     0.49424   0.47947   0.23361   1.00000  Uiso   1.00
Fe001  Fe    0.49851   0.48746   0.14560   1.00000  Uiso   1.00
O001   O     0.49622   0.58793   0.27500   1.00000  Uiso   1.00
H001   H     0.48809   0.36447   0.25381   1.00000  Uiso   1.00
loop_
_geom_bond_atom_site_label_1
_geom_bond_atom_site_label_2
_geom_bond_distance
_geom_bond_site_symmetry_2
_ccdc_geom_bond_type
C001   C002    1.410   .     D
C001   C003    1.410   .     S
C001   C019    1.448   1_545 S
C002   C008    1.437   .     S
C002   N002    1.391   .     S
C003   C005    1.437   .     D
C003   N001    1.391   .     S
C004   C005    1.403   1_565 S
C004   C016    1.437   .     D
C004   C018    1.438   .     S
C005   C004    1.403   1_545 S
C005   C006    1.438   .     S
C006   C007    1.435   .     S
C006   C009    1.403   1_655 D
C007   C020    1.410   .     S
C007   N001    1.393   .     D
C008   C009    1.438   .     S
C008   C014    1.402   1_545 D
C009   C006    1.403   1_455 D
C009   C010    1.435   .     S
C010   C011    1.410   .     S
C010   N002    1.393   .     D
C011   C012    1.409   .     S
C011   C020    1.450   1_455 D
C012   C015    1.435   .     S
C012   N003    1.393   .     D
C013   C014    1.437   .     S
C013   C019    1.409   .     D
C013   N003    1.390   .     S
C014   C008    1.402   1_565 D
C014   C015    1.438   .     S
C015   C018    1.404   1_455 D
C016   C019    1.409   .     S
C016   N004    1.390   .     S
C017   C018    1.435   .     S
C017   C020    1.409   .     S
C017   N004    1.394   .     D
C018   C015    1.404   1_655 D
C019   C001    1.448   1_565 S
C020   C011    1.450   1_655 D
N001   Fe001   2.009   .     S
N002   Fe001   2.006   .     S
N003   Fe001   1.993   .     S
N004   Fe001   1.995   .     S
N005   Fe001   1.766   .     S
N005   O001    1.232   .     D
N005   H001    1.048   .     S
