data_e+1.0-opt
_audit_creation_date              2024-12-22
_audit_creation_method            'Materials Studio'
_symmetry_space_group_name_H-M    'P1'
_symmetry_Int_Tables_number       1
_symmetry_cell_setting            triclinic
loop_
_symmetry_equiv_pos_as_xyz
  x,y,z
_cell_length_a                    8.3950
_cell_length_b                    8.3950
_cell_length_c                    20.0383
_cell_angle_alpha                 90.0000
_cell_angle_beta                  90.0000
_cell_angle_gamma                 90.0000
loop_
_atom_site_label
_atom_site_type_symbol
_atom_site_fract_x
_atom_site_fract_y
_atom_site_fract_z
_atom_site_U_iso_or_equiv
_atom_site_adp_type
_atom_site_occupancy
C001   C     0.50067   0.08070   0.14005   1.00000  Uiso   1.00
C002   C     0.35431   0.16253   0.13967   1.00000  Uiso   1.00
C003   C     0.64703   0.16253   0.13967   1.00000  Uiso   1.00
C004   C     0.79630   0.91075   0.13908   1.00000  Uiso   1.00
C005   C     0.79625   0.07768   0.13875   1.00000  Uiso   1.00
C006   C     0.91719   0.19869   0.13857   1.00000  Uiso   1.00
C007   C     0.83262   0.34766   0.13982   1.00000  Uiso   1.00
C008   C     0.20509   0.07768   0.13876   1.00000  Uiso   1.00
C009   C     0.08416   0.19869   0.13857   1.00000  Uiso   1.00
C010   C     0.16872   0.34766   0.13983   1.00000  Uiso   1.00
C011   C     0.08703   0.49418   0.14069   1.00000  Uiso   1.00
C012   C     0.16883   0.64064   0.14050   1.00000  Uiso   1.00
C013   C     0.35437   0.82632   0.13987   1.00000  Uiso   1.00
C014   C     0.20504   0.91075   0.13909   1.00000  Uiso   1.00
C015   C     0.08426   0.78955   0.13939   1.00000  Uiso   1.00
C016   C     0.64697   0.82632   0.13986   1.00000  Uiso   1.00
C017   C     0.83251   0.64064   0.14049   1.00000  Uiso   1.00
C018   C     0.91708   0.78955   0.13939   1.00000  Uiso   1.00
C019   C     0.50067   0.90830   0.14010   1.00000  Uiso   1.00
C020   C     0.91431   0.49418   0.14069   1.00000  Uiso   1.00
N001   N     0.66850   0.32623   0.14061   1.00000  Uiso   1.00
N002   N     0.33284   0.32623   0.14062   1.00000  Uiso   1.00
N003   N     0.33336   0.66232   0.14072   1.00000  Uiso   1.00
N004   N     0.66798   0.66232   0.14071   1.00000  Uiso   1.00
N005   N     0.50070   0.49877   0.23835   1.00000  Uiso   1.00
Fe001  Fe    0.50067   0.49520   0.15354   1.00000  Uiso   1.00
H001   H     0.50067   0.61791   0.25446   1.00000  Uiso   1.00
loop_
_geom_bond_atom_site_label_1
_geom_bond_atom_site_label_2
_geom_bond_distance
_geom_bond_site_symmetry_2
_ccdc_geom_bond_type
C001   C002    1.408   .     D
C001   C003    1.408   .     S
C001   C019    1.447   1_545 S
C002   C008    1.441   .     S
C002   N002    1.386   .     S
C003   C005    1.441   .     D
C003   N001    1.386   .     S
C004   C005    1.401   1_565 S
C004   C016    1.440   .     D
C004   C018    1.436   .     S
C005   C004    1.401   1_545 S
C005   C006    1.436   .     S
C006   C007    1.438   .     S
C006   C009    1.402   1_655 D
C007   C020    1.408   .     S
C007   N001    1.390   .     D
C008   C009    1.436   .     S
C008   C014    1.401   1_545 D
C009   C006    1.402   1_455 D
C009   C010    1.438   .     S
C010   C011    1.408   .     S
C010   N002    1.390   .     D
C011   C012    1.408   .     S
C011   C020    1.450   1_455 D
C012   C015    1.438   .     S
C012   N003    1.393   .     D
C013   C014    1.440   .     S
C013   C019    1.408   .     D
C013   N003    1.388   .     S
C014   C008    1.401   1_565 D
C014   C015    1.436   .     S
C015   C018    1.403   1_455 D
C016   C019    1.408   .     S
C016   N004    1.388   .     S
C017   C018    1.438   .     S
C017   C020    1.408   .     S
C017   N004    1.393   .     D
C018   C015    1.403   1_655 D
C019   C001    1.447   1_565 S
C020   C011    1.450   1_655 D
N001   Fe001   2.016   .     S
N002   Fe001   2.016   .     S
N003   Fe001   2.002   .     S
N004   Fe001   2.002   .     S
N005   Fe001   1.700   .     S
N005   H001    1.051   .     S
