data_e+0.6-opt
_audit_creation_date              2024-12-22
_audit_creation_method            'Materials Studio'
_symmetry_space_group_name_H-M    'P1'
_symmetry_Int_Tables_number       1
_symmetry_cell_setting            triclinic
loop_
_symmetry_equiv_pos_as_xyz
  x,y,z
_cell_length_a                    12.4727
_cell_length_b                    12.7357
_cell_length_c                    19.9866
_cell_angle_alpha                 90.0000
_cell_angle_beta                  90.0000
_cell_angle_gamma                 90.0000
loop_
_atom_site_label
_atom_site_type_symbol
_atom_site_fract_x
_atom_site_fract_y
_atom_site_fract_z
_atom_site_U_iso_or_equiv
_atom_site_adp_type
_atom_site_occupancy
C001   C     0.05207   0.04500   0.15443   1.00000  Uiso   1.00
C002   C     0.15249   0.09976   0.15403   1.00000  Uiso   1.00
C003   C     0.15181   0.21109   0.15287   1.00000  Uiso   1.00
C004   C     0.05204   0.26619   0.15234   1.00000  Uiso   1.00
C005   C     0.25333   0.04535   0.15484   1.00000  Uiso   1.00
C006   C     0.35346   0.10146   0.15512   1.00000  Uiso   1.00
C007   C     0.35234   0.21413   0.15433   1.00000  Uiso   1.00
C008   C     0.25114   0.26676   0.15278   1.00000  Uiso   1.00
C009   C     0.45352   0.04617   0.15638   1.00000  Uiso   1.00
C010   C     0.55220   0.10519   0.15710   1.00000  Uiso   1.00
C011   C     0.55221   0.21966   0.15783   1.00000  Uiso   1.00
C012   C     0.45014   0.27464   0.15650   1.00000  Uiso   1.00
C013   C     0.65082   0.04619   0.15680   1.00000  Uiso   1.00
C014   C     0.75070   0.10164   0.15565   1.00000  Uiso   1.00
C015   C     0.75157   0.21452   0.15541   1.00000  Uiso   1.00
C016   C     0.65367   0.27495   0.15763   1.00000  Uiso   1.00
C017   C     0.85082   0.04538   0.15514   1.00000  Uiso   1.00
C018   C     0.95166   0.09977   0.15419   1.00000  Uiso   1.00
C019   C     0.95214   0.21118   0.15327   1.00000  Uiso   1.00
C020   C     0.85294   0.26696   0.15401   1.00000  Uiso   1.00
C021   C     0.05208   0.37776   0.15173   1.00000  Uiso   1.00
C022   C     0.15049   0.43366   0.15135   1.00000  Uiso   1.00
C023   C     0.15057   0.54487   0.15203   1.00000  Uiso   1.00
C024   C     0.05227   0.60088   0.15297   1.00000  Uiso   1.00
C025   C     0.24944   0.37801   0.15179   1.00000  Uiso   1.00
C026   C     0.34743   0.43290   0.15332   1.00000  Uiso   1.00
C027   C     0.34762   0.54550   0.15296   1.00000  Uiso   1.00
C028   C     0.24958   0.60048   0.15265   1.00000  Uiso   1.00
C029   C     0.75711   0.43352   0.15740   1.00000  Uiso   1.00
C030   C     0.75714   0.54566   0.15887   1.00000  Uiso   1.00
C031   C     0.85469   0.37826   0.15423   1.00000  Uiso   1.00
C032   C     0.95379   0.43378   0.15282   1.00000  Uiso   1.00
C033   C     0.95385   0.54497   0.15352   1.00000  Uiso   1.00
C034   C     0.85500   0.60064   0.15593   1.00000  Uiso   1.00
C035   C     0.05226   0.71247   0.15422   1.00000  Uiso   1.00
C036   C     0.15210   0.76758   0.15433   1.00000  Uiso   1.00
C037   C     0.05217   0.93373   0.15503   1.00000  Uiso   1.00
C038   C     0.25140   0.71183   0.15379   1.00000  Uiso   1.00
C039   C     0.35263   0.76451   0.15496   1.00000  Uiso   1.00
C040   C     0.35354   0.87723   0.15571   1.00000  Uiso   1.00
C041   C     0.25342   0.93334   0.15527   1.00000  Uiso   1.00
C042   C     0.45054   0.70395   0.15619   1.00000  Uiso   1.00
C043   C     0.55232   0.75894   0.15861   1.00000  Uiso   1.00
C044   C     0.55223   0.87339   0.15769   1.00000  Uiso   1.00
C045   C     0.45359   0.93253   0.15663   1.00000  Uiso   1.00
C046   C     0.65402   0.70362   0.15986   1.00000  Uiso   1.00
C047   C     0.75181   0.76423   0.15748   1.00000  Uiso   1.00
C048   C     0.75082   0.87704   0.15674   1.00000  Uiso   1.00
C049   C     0.65086   0.93244   0.15727   1.00000  Uiso   1.00
C050   C     0.85318   0.71184   0.15642   1.00000  Uiso   1.00
C051   C     0.95244   0.76757   0.15540   1.00000  Uiso   1.00
C052   C     0.85089   0.93331   0.15578   1.00000  Uiso   1.00
C053   C     0.15260   0.87893   0.15500   1.00000  Uiso   1.00
C054   C     0.95180   0.87895   0.15546   1.00000  Uiso   1.00
N001   N     0.44520   0.38334   0.15724   1.00000  Uiso   1.00
N002   N     0.44523   0.59517   0.15479   1.00000  Uiso   1.00
N003   N     0.65855   0.38456   0.15980   1.00000  Uiso   1.00
N004   N     0.65906   0.59465   0.16298   1.00000  Uiso   1.00
N005   N     0.55695   0.54325   0.31299   1.00000  Uiso   1.00
Fe001  Fe    0.55120   0.48807   0.17296   1.00000  Uiso   1.00
O001   O     0.57368   0.47413   0.38152   1.00000  Uiso   1.00
O002   O     0.61994   0.61782   0.30686   1.00000  Uiso   1.00
O003   O     0.52644   0.47775   0.26583   1.00000  Uiso   1.00
H001   H     0.60862   0.53014   0.40699   1.00000  Uiso   1.00
loop_
_geom_bond_atom_site_label_1
_geom_bond_atom_site_label_2
_geom_bond_distance
_geom_bond_site_symmetry_2
_ccdc_geom_bond_type
C001   C002    1.434   .     D
C001   C018    1.434   1_455 S
C001   C037    1.417   1_545 S
C002   C003    1.418   .     S
C002   C005    1.436   .     S
C003   C004    1.429   .     D
C003   C008    1.428   .     S
C004   C019    1.430   1_455 S
C004   C021    1.421   .     S
C005   C006    1.439   .     S
C005   C041    1.427   1_545 D
C006   C007    1.435   .     S
C006   C009    1.433   .     D
C007   C008    1.429   .     S
C007   C012    1.444   .     D
C008   C025    1.417   .     D
C009   C010    1.442   .     S
C009   C045    1.447   1_545 S
C010   C011    1.458   .     D
C010   C013    1.441   .     S
C011   C012    1.453   .     S
C011   C016    1.448   .     S
C012   N001    1.386   .     S
C013   C014    1.432   .     D
C013   C049    1.449   1_545 S
C014   C015    1.438   .     S
C014   C017    1.440   .     S
C015   C016    1.444   .     S
C015   C020    1.430   .     D
C016   N003    1.398   .     D
C017   C018    1.436   .     S
C017   C052    1.427   1_545 D
C018   C001    1.434   1_655 S
C018   C019    1.419   .     D
C019   C004    1.430   1_655 S
C019   C020    1.427   .     S
C020   C031    1.418   .     S
C021   C022    1.419   .     D
C021   C032    1.419   1_455 S
C022   C023    1.416   .     S
C022   C025    1.423   .     S
C023   C024    1.419   .     D
C023   C028    1.424   .     S
C024   C033    1.419   1_455 S
C024   C035    1.421   .     S
C025   C026    1.408   .     S
C026   C027    1.434   .     S
C026   N001    1.375   .     D
C027   C028    1.409   .     S
C027   N002    1.372   .     D
C028   C038    1.418   .     D
C029   C030    1.429   .     S
C029   C031    1.407   .     D
C029   N003    1.379   .     S
C030   C034    1.408   .     S
C030   N004    1.376   .     D
C031   C032    1.424   .     S
C032   C021    1.419   1_655 S
C032   C033    1.416   .     D
C033   C024    1.419   1_655 S
C033   C034    1.423   .     S
C034   C050    1.416   .     D
C035   C036    1.429   .     S
C035   C051    1.429   1_455 D
C036   C038    1.428   .     S
C036   C053    1.418   .     D
C037   C001    1.417   1_565 S
C037   C053    1.434   .     S
C037   C054    1.433   1_455 D
C038   C039    1.430   .     S
C039   C040    1.436   .     S
C039   C042    1.445   .     D
C040   C041    1.439   .     S
C040   C045    1.433   .     D
C041   C005    1.427   1_565 D
C041   C053    1.436   .     S
C042   C043    1.451   .     S
C042   N002    1.387   .     S
C043   C044    1.458   .     S
C043   C046    1.451   .     D
C044   C045    1.443   .     S
C044   C049    1.442   .     D
C045   C009    1.447   1_565 S
C046   C047    1.444   .     S
C046   N004    1.391   .     S
C047   C048    1.437   .     D
C047   C050    1.430   .     S
C048   C049    1.433   .     S
C048   C052    1.439   .     S
C049   C013    1.449   1_565 S
C050   C051    1.427   .     S
C051   C035    1.429   1_655 D
C051   C054    1.418   .     S
C052   C017    1.427   1_565 D
C052   C054    1.436   .     S
C054   C037    1.433   1_655 D
N001   Fe001   1.904   .     S
N002   Fe001   1.934   .     S
N003   Fe001   1.897   .     S
N004   Fe001   1.922   .     S
N005   O001    1.641   .     S
N005   O002    1.239   .     D
N005   O003    1.315   .     S
Fe001  O003    1.886   .     S
O001   H001    0.979   .     S
