data_e+1.0-opt
_audit_creation_date              2024-12-22
_audit_creation_method            'Materials Studio'
_symmetry_space_group_name_H-M    'P1'
_symmetry_Int_Tables_number       1
_symmetry_cell_setting            triclinic
loop_
_symmetry_equiv_pos_as_xyz
  x,y,z
_cell_length_a                    12.4760
_cell_length_b                    12.7392
_cell_length_c                    19.9920
_cell_angle_alpha                 90.0000
_cell_angle_beta                  90.0000
_cell_angle_gamma                 90.0000
loop_
_atom_site_label
_atom_site_type_symbol
_atom_site_fract_x
_atom_site_fract_y
_atom_site_fract_z
_atom_site_U_iso_or_equiv
_atom_site_adp_type
_atom_site_occupancy
C001   C     0.04910   0.04438   0.15619   1.00000  Uiso   1.00
C002   C     0.14952   0.09920   0.15577   1.00000  Uiso   1.00
C003   C     0.14902   0.21054   0.15438   1.00000  Uiso   1.00
C004   C     0.04921   0.26564   0.15382   1.00000  Uiso   1.00
C005   C     0.25032   0.04482   0.15666   1.00000  Uiso   1.00
C006   C     0.35047   0.10096   0.15739   1.00000  Uiso   1.00
C007   C     0.34955   0.21368   0.15632   1.00000  Uiso   1.00
C008   C     0.24834   0.26631   0.15412   1.00000  Uiso   1.00
C009   C     0.45045   0.04560   0.15912   1.00000  Uiso   1.00
C010   C     0.54910   0.10461   0.16031   1.00000  Uiso   1.00
C011   C     0.54912   0.21919   0.16113   1.00000  Uiso   1.00
C012   C     0.44745   0.27437   0.15844   1.00000  Uiso   1.00
C013   C     0.64774   0.04559   0.15990   1.00000  Uiso   1.00
C014   C     0.74777   0.10090   0.15873   1.00000  Uiso   1.00
C015   C     0.74887   0.21365   0.15880   1.00000  Uiso   1.00
C016   C     0.65099   0.27422   0.16159   1.00000  Uiso   1.00
C017   C     0.84786   0.04472   0.15763   1.00000  Uiso   1.00
C018   C     0.94873   0.09912   0.15651   1.00000  Uiso   1.00
C019   C     0.94944   0.21047   0.15560   1.00000  Uiso   1.00
C020   C     0.85016   0.26620   0.15670   1.00000  Uiso   1.00
C021   C     0.04924   0.37724   0.15225   1.00000  Uiso   1.00
C022   C     0.14750   0.43328   0.15153   1.00000  Uiso   1.00
C023   C     0.14736   0.54448   0.15140   1.00000  Uiso   1.00
C024   C     0.04899   0.60042   0.15203   1.00000  Uiso   1.00
C025   C     0.24648   0.37764   0.15267   1.00000  Uiso   1.00
C026   C     0.34444   0.43264   0.15419   1.00000  Uiso   1.00
C027   C     0.34410   0.54505   0.15505   1.00000  Uiso   1.00
C028   C     0.24626   0.60015   0.15285   1.00000  Uiso   1.00
C029   C     0.75434   0.43251   0.15856   1.00000  Uiso   1.00
C030   C     0.75404   0.54464   0.15750   1.00000  Uiso   1.00
C031   C     0.85216   0.37745   0.15557   1.00000  Uiso   1.00
C032   C     0.95089   0.43319   0.15295   1.00000  Uiso   1.00
C033   C     0.95069   0.54439   0.15276   1.00000  Uiso   1.00
C034   C     0.85167   0.59995   0.15479   1.00000  Uiso   1.00
C035   C     0.04893   0.71198   0.15356   1.00000  Uiso   1.00
C036   C     0.14867   0.76709   0.15450   1.00000  Uiso   1.00
C037   C     0.04899   0.93314   0.15613   1.00000  Uiso   1.00
C038   C     0.24800   0.71137   0.15458   1.00000  Uiso   1.00
C039   C     0.34913   0.76399   0.15695   1.00000  Uiso   1.00
C040   C     0.35033   0.87668   0.15762   1.00000  Uiso   1.00
C041   C     0.25022   0.93282   0.15673   1.00000  Uiso   1.00
C042   C     0.44698   0.70349   0.15975   1.00000  Uiso   1.00
C043   C     0.54903   0.75843   0.16105   1.00000  Uiso   1.00
C044   C     0.54903   0.87293   0.16027   1.00000  Uiso   1.00
C045   C     0.45037   0.93192   0.15922   1.00000  Uiso   1.00
C046   C     0.65055   0.70318   0.15989   1.00000  Uiso   1.00
C047   C     0.74855   0.76360   0.15773   1.00000  Uiso   1.00
C048   C     0.74760   0.87645   0.15836   1.00000  Uiso   1.00
C049   C     0.64771   0.93186   0.15974   1.00000  Uiso   1.00
C050   C     0.84985   0.71120   0.15563   1.00000  Uiso   1.00
C051   C     0.94910   0.76697   0.15501   1.00000  Uiso   1.00
C052   C     0.84776   0.93268   0.15746   1.00000  Uiso   1.00
C053   C     0.14939   0.87839   0.15583   1.00000  Uiso   1.00
C054   C     0.94859   0.87833   0.15624   1.00000  Uiso   1.00
N001   N     0.44201   0.38317   0.15755   1.00000  Uiso   1.00
N002   N     0.44184   0.59462   0.16053   1.00000  Uiso   1.00
N003   N     0.65659   0.38317   0.16398   1.00000  Uiso   1.00
N004   N     0.65559   0.59373   0.16063   1.00000  Uiso   1.00
N005   N     0.54324   0.50369   0.26534   1.00000  Uiso   1.00
O001   O     0.63894   0.50787   0.30591   1.00000  Uiso   1.00
Fe001  Fe    0.54883   0.49129   0.17547   1.00000  Uiso   1.00
H001   H     0.68093   0.44925   0.28820   1.00000  Uiso   1.00
H002   H     0.49948   0.56469   0.28518   1.00000  Uiso   1.00
loop_
_geom_bond_atom_site_label_1
_geom_bond_atom_site_label_2
_geom_bond_distance
_geom_bond_site_symmetry_2
_ccdc_geom_bond_type
C001   C002    1.434   .     D
C001   C018    1.433   1_455 S
C001   C037    1.417   1_545 S
C002   C003    1.419   .     S
C002   C005    1.436   .     S
C003   C004    1.430   .     D
C003   C008    1.428   .     S
C004   C019    1.430   1_455 S
C004   C021    1.422   .     S
C005   C006    1.440   .     S
C005   C041    1.427   1_545 D
C006   C007    1.436   .     S
C006   C009    1.433   .     D
C007   C008    1.430   .     S
C007   C012    1.446   .     D
C008   C025    1.419   .     D
C009   C010    1.442   .     S
C009   C045    1.448   1_545 S
C010   C011    1.460   .     D
C010   C013    1.442   .     S
C011   C012    1.451   .     S
C011   C016    1.452   .     S
C012   N001    1.388   .     S
C013   C014    1.433   .     D
C013   C049    1.449   1_545 S
C014   C015    1.436   .     S
C014   C017    1.439   .     S
C015   C016    1.446   .     S
C015   C020    1.431   .     D
C016   N003    1.390   .     D
C017   C018    1.437   .     S
C017   C052    1.427   1_545 D
C018   C001    1.433   1_655 S
C018   C019    1.419   .     D
C019   C004    1.430   1_655 S
C019   C020    1.428   .     S
C020   C031    1.418   .     S
C021   C022    1.419   .     D
C021   C032    1.419   1_455 S
C022   C023    1.417   .     S
C022   C025    1.424   .     S
C023   C024    1.419   .     D
C023   C028    1.424   .     S
C024   C033    1.419   1_455 S
C024   C035    1.422   .     S
C025   C026    1.409   .     S
C026   C027    1.432   .     S
C026   N001    1.372   .     D
C027   C028    1.409   .     S
C027   N002    1.378   .     D
C028   C038    1.417   .     D
C029   C030    1.429   .     S
C029   C031    1.409   .     D
C029   N003    1.376   .     S
C030   C034    1.408   .     S
C030   N004    1.380   .     D
C031   C032    1.423   .     S
C032   C021    1.419   1_655 S
C032   C033    1.417   .     D
C033   C024    1.419   1_655 S
C033   C034    1.424   .     S
C034   C050    1.418   .     D
C035   C036    1.429   .     S
C035   C051    1.429   1_455 D
C036   C038    1.428   .     S
C036   C053    1.418   .     D
C037   C001    1.417   1_565 S
C037   C053    1.434   .     S
C037   C054    1.434   1_455 D
C038   C039    1.430   .     S
C039   C040    1.436   .     S
C039   C042    1.445   .     D
C040   C041    1.439   .     S
C040   C045    1.433   .     D
C041   C005    1.427   1_565 D
C041   C053    1.436   .     S
C042   C043    1.453   .     S
C042   N002    1.389   .     S
C043   C044    1.459   .     S
C043   C046    1.449   .     D
C044   C045    1.442   .     S
C044   C049    1.442   .     D
C045   C009    1.448   1_565 S
C046   C047    1.445   .     S
C046   N004    1.396   .     S
C047   C048    1.438   .     D
C047   C050    1.430   .     S
C048   C049    1.433   .     S
C048   C052    1.440   .     S
C049   C013    1.449   1_565 S
C050   C051    1.428   .     S
C051   C035    1.429   1_655 D
C051   C054    1.419   .     S
C052   C017    1.427   1_565 D
C052   C054    1.436   .     S
C054   C037    1.434   1_655 D
N001   Fe001   1.950   .     S
N002   Fe001   1.898   .     S
N003   Fe001   1.938   .     S
N004   Fe001   1.888   .     S
N005   O001    1.444   .     S
N005   Fe001   1.805   .     S
N005   H002    1.029   .     S
O001   H001    0.979   .     S
