data_e-0.8-opt
_audit_creation_date              2024-12-22
_audit_creation_method            'Materials Studio'
_symmetry_space_group_name_H-M    'P1'
_symmetry_Int_Tables_number       1
_symmetry_cell_setting            triclinic
loop_
_symmetry_equiv_pos_as_xyz
  x,y,z
_cell_length_a                    8.3991
_cell_length_b                    8.3991
_cell_length_c                    20.0482
_cell_angle_alpha                 90.0000
_cell_angle_beta                  90.0000
_cell_angle_gamma                 90.0000
loop_
_atom_site_label
_atom_site_type_symbol
_atom_site_fract_x
_atom_site_fract_y
_atom_site_fract_z
_atom_site_U_iso_or_equiv
_atom_site_adp_type
_atom_site_occupancy
C001   C     0.50017   0.06717   0.13867   1.00000  Uiso   1.00
C002   C     0.35339   0.14846   0.13896   1.00000  Uiso   1.00
C003   C     0.64668   0.14894   0.13798   1.00000  Uiso   1.00
C004   C     0.79632   0.89737   0.13814   1.00000  Uiso   1.00
C005   C     0.79561   0.06489   0.13746   1.00000  Uiso   1.00
C006   C     0.91607   0.18548   0.13779   1.00000  Uiso   1.00
C007   C     0.83162   0.33429   0.13886   1.00000  Uiso   1.00
C008   C     0.20466   0.06409   0.13777   1.00000  Uiso   1.00
C009   C     0.08362   0.18475   0.13822   1.00000  Uiso   1.00
C010   C     0.16755   0.33346   0.13960   1.00000  Uiso   1.00
C011   C     0.08622   0.48029   0.13946   1.00000  Uiso   1.00
C012   C     0.16818   0.62666   0.13766   1.00000  Uiso   1.00
C013   C     0.35410   0.81274   0.13703   1.00000  Uiso   1.00
C014   C     0.20555   0.89639   0.13683   1.00000  Uiso   1.00
C015   C     0.08445   0.77541   0.13718   1.00000  Uiso   1.00
C016   C     0.64758   0.81358   0.13962   1.00000  Uiso   1.00
C017   C     0.83227   0.62747   0.14049   1.00000  Uiso   1.00
C018   C     0.91695   0.77618   0.13831   1.00000  Uiso   1.00
C019   C     0.50054   0.89463   0.13860   1.00000  Uiso   1.00
C020   C     0.91356   0.48067   0.14008   1.00000  Uiso   1.00
N001   N     0.66720   0.31325   0.13809   1.00000  Uiso   1.00
N002   N     0.33210   0.31297   0.14009   1.00000  Uiso   1.00
N003   N     0.33325   0.64723   0.13628   1.00000  Uiso   1.00
N004   N     0.66793   0.64888   0.14193   1.00000  Uiso   1.00
N005   N     0.47959   0.48450   0.23842   1.00000  Uiso   1.00
Fe001  Fe    0.49611   0.48180   0.15054   1.00000  Uiso   1.00
O001   O     0.49457   0.61710   0.27777   1.00000  Uiso   1.00
H001   H     0.40367   0.41064   0.26425   1.00000  Uiso   1.00
H002   H     0.57367   0.68429   0.25502   1.00000  Uiso   1.00
loop_
_geom_bond_atom_site_label_1
_geom_bond_atom_site_label_2
_geom_bond_distance
_geom_bond_site_symmetry_2
_ccdc_geom_bond_type
C001   C002    1.409   .     D
C001   C003    1.409   .     S
C001   C019    1.449   1_545 S
C002   C008    1.436   .     S
C002   N002    1.393   .     S
C003   C005    1.436   .     D
C003   N001    1.391   .     S
C004   C005    1.407   1_565 S
C004   C016    1.434   .     D
C004   C018    1.436   .     S
C005   C004    1.407   1_545 S
C005   C006    1.432   .     S
C006   C007    1.437   .     S
C006   C009    1.407   1_655 D
C007   C020    1.409   .     S
C007   N001    1.392   .     D
C008   C009    1.436   .     S
C008   C014    1.409   1_545 D
C009   C006    1.407   1_455 D
C009   C010    1.434   .     S
C010   C011    1.410   .     S
C010   N002    1.393   .     D
C011   C012    1.409   .     S
C011   C020    1.450   1_455 D
C012   C015    1.434   .     S
C012   N003    1.397   .     D
C013   C014    1.432   .     S
C013   C019    1.410   .     D
C013   N003    1.401   .     S
C014   C008    1.409   1_565 D
C014   C015    1.438   .     S
C015   C018    1.407   1_455 D
C016   C019    1.410   .     S
C016   N004    1.395   .     S
C017   C018    1.438   .     S
C017   C020    1.409   .     S
C017   N004    1.392   .     D
C018   C015    1.407   1_655 D
C019   C001    1.449   1_565 S
C020   C011    1.450   1_655 D
N001   Fe001   2.033   .     S
N002   Fe001   1.988   .     S
N003   Fe001   1.971   .     S
N004   Fe001   2.020   .     S
N005   Fe001   1.767   .     S
N005   O001    1.371   .     S
N005   H001    1.029   .     S
O001   H002    0.984   .     S
