data_e-1.0-opt
_audit_creation_date              2024-12-22
_audit_creation_method            'Materials Studio'
_symmetry_space_group_name_H-M    'P1'
_symmetry_Int_Tables_number       1
_symmetry_cell_setting            triclinic
loop_
_symmetry_equiv_pos_as_xyz
  x,y,z
_cell_length_a                    12.4713
_cell_length_b                    12.7343
_cell_length_c                    19.9844
_cell_angle_alpha                 90.0000
_cell_angle_beta                  90.0000
_cell_angle_gamma                 90.0000
loop_
_atom_site_label
_atom_site_type_symbol
_atom_site_fract_x
_atom_site_fract_y
_atom_site_fract_z
_atom_site_U_iso_or_equiv
_atom_site_adp_type
_atom_site_occupancy
C001   C     0.05131   0.04523   0.15506   1.00000  Uiso   1.00
C002   C     0.15177   0.10002   0.15455   1.00000  Uiso   1.00
C003   C     0.15116   0.21136   0.15300   1.00000  Uiso   1.00
C004   C     0.05127   0.26649   0.15205   1.00000  Uiso   1.00
C005   C     0.25255   0.04560   0.15555   1.00000  Uiso   1.00
C006   C     0.35266   0.10165   0.15618   1.00000  Uiso   1.00
C007   C     0.35156   0.21427   0.15530   1.00000  Uiso   1.00
C008   C     0.25045   0.26705   0.15307   1.00000  Uiso   1.00
C009   C     0.45278   0.04640   0.15773   1.00000  Uiso   1.00
C010   C     0.55136   0.10530   0.15865   1.00000  Uiso   1.00
C011   C     0.55129   0.21996   0.15920   1.00000  Uiso   1.00
C012   C     0.44956   0.27475   0.15769   1.00000  Uiso   1.00
C013   C     0.64992   0.04654   0.15837   1.00000  Uiso   1.00
C014   C     0.74985   0.10200   0.15705   1.00000  Uiso   1.00
C015   C     0.75072   0.21487   0.15643   1.00000  Uiso   1.00
C016   C     0.65260   0.27528   0.15869   1.00000  Uiso   1.00
C017   C     0.85001   0.04574   0.15629   1.00000  Uiso   1.00
C018   C     0.95085   0.10003   0.15500   1.00000  Uiso   1.00
C019   C     0.95141   0.21145   0.15356   1.00000  Uiso   1.00
C020   C     0.85217   0.26723   0.15421   1.00000  Uiso   1.00
C021   C     0.05135   0.37804   0.15065   1.00000  Uiso   1.00
C022   C     0.14983   0.43398   0.15018   1.00000  Uiso   1.00
C023   C     0.14991   0.54521   0.15052   1.00000  Uiso   1.00
C024   C     0.05148   0.60122   0.15141   1.00000  Uiso   1.00
C025   C     0.24871   0.37844   0.15149   1.00000  Uiso   1.00
C026   C     0.34686   0.43336   0.15352   1.00000  Uiso   1.00
C027   C     0.34699   0.54565   0.15329   1.00000  Uiso   1.00
C028   C     0.24888   0.60068   0.15182   1.00000  Uiso   1.00
C029   C     0.75626   0.43377   0.15629   1.00000  Uiso   1.00
C030   C     0.75638   0.54568   0.15710   1.00000  Uiso   1.00
C031   C     0.85412   0.37844   0.15333   1.00000  Uiso   1.00
C032   C     0.95296   0.43399   0.15135   1.00000  Uiso   1.00
C033   C     0.95304   0.54533   0.15178   1.00000  Uiso   1.00
C034   C     0.85432   0.60093   0.15433   1.00000  Uiso   1.00
C035   C     0.05142   0.71274   0.15323   1.00000  Uiso   1.00
C036   C     0.15134   0.76781   0.15387   1.00000  Uiso   1.00
C037   C     0.05137   0.93400   0.15547   1.00000  Uiso   1.00
C038   C     0.25061   0.71208   0.15354   1.00000  Uiso   1.00
C039   C     0.35177   0.76482   0.15554   1.00000  Uiso   1.00
C040   C     0.35275   0.87747   0.15646   1.00000  Uiso   1.00
C041   C     0.25261   0.93354   0.15578   1.00000  Uiso   1.00
C042   C     0.44985   0.70434   0.15749   1.00000  Uiso   1.00
C043   C     0.55141   0.75927   0.15973   1.00000  Uiso   1.00
C044   C     0.55141   0.87393   0.15901   1.00000  Uiso   1.00
C045   C     0.45282   0.93279   0.15786   1.00000  Uiso   1.00
C046   C     0.65288   0.70408   0.16004   1.00000  Uiso   1.00
C047   C     0.75095   0.76449   0.15774   1.00000  Uiso   1.00
C048   C     0.74995   0.87733   0.15778   1.00000  Uiso   1.00
C049   C     0.64996   0.93272   0.15867   1.00000  Uiso   1.00
C050   C     0.85237   0.71208   0.15571   1.00000  Uiso   1.00
C051   C     0.95161   0.76783   0.15494   1.00000  Uiso   1.00
C052   C     0.85007   0.93358   0.15673   1.00000  Uiso   1.00
C053   C     0.15184   0.87916   0.15515   1.00000  Uiso   1.00
C054   C     0.95093   0.87925   0.15586   1.00000  Uiso   1.00
N001   N     0.44414   0.38324   0.15779   1.00000  Uiso   1.00
N002   N     0.44453   0.59567   0.15656   1.00000  Uiso   1.00
N003   N     0.65810   0.38480   0.15929   1.00000  Uiso   1.00
N004   N     0.65840   0.59471   0.16119   1.00000  Uiso   1.00
N005   N     0.55575   0.49021   0.26089   1.00000  Uiso   1.00
H001   H     0.62964   0.49888   0.28539   1.00000  Uiso   1.00
Fe001  Fe    0.55172   0.48967   0.17755   1.00000  Uiso   1.00
loop_
_geom_bond_atom_site_label_1
_geom_bond_atom_site_label_2
_geom_bond_distance
_geom_bond_site_symmetry_2
_ccdc_geom_bond_type
C001   C002    1.434   .     D
C001   C018    1.434   1_455 S
C001   C037    1.416   1_545 S
C002   C003    1.418   .     S
C002   C005    1.435   .     S
C003   C004    1.430   .     D
C003   C008    1.427   .     S
C004   C019    1.429   1_455 S
C004   C021    1.421   .     S
C005   C006    1.438   .     S
C005   C041    1.427   1_545 D
C006   C007    1.434   .     S
C006   C009    1.434   .     D
C007   C008    1.430   .     S
C007   C012    1.445   .     D
C008   C025    1.419   .     D
C009   C010    1.440   .     S
C009   C045    1.447   1_545 S
C010   C011    1.460   .     D
C010   C013    1.439   .     S
C011   C012    1.448   .     S
C011   C016    1.447   .     S
C012   N001    1.383   .     S
C013   C014    1.433   .     D
C013   C049    1.449   1_545 S
C014   C015    1.437   .     S
C014   C017    1.440   .     S
C015   C016    1.446   .     S
C015   C020    1.431   .     D
C016   N003    1.397   .     D
C017   C018    1.435   .     S
C017   C052    1.428   1_545 D
C018   C001    1.434   1_655 S
C018   C019    1.419   .     D
C019   C004    1.429   1_655 S
C019   C020    1.427   .     S
C020   C031    1.416   .     S
C021   C022    1.420   .     D
C021   C032    1.419   1_455 S
C022   C023    1.416   .     S
C022   C025    1.422   .     S
C023   C024    1.420   .     D
C023   C028    1.422   .     S
C024   C033    1.419   1_455 S
C024   C035    1.421   .     S
C025   C026    1.410   .     S
C026   C027    1.430   .     S
C026   N001    1.374   .     D
C027   C028    1.410   .     S
C027   N002    1.375   .     D
C028   C038    1.419   .     D
C029   C030    1.425   .     S
C029   C031    1.411   .     D
C029   N003    1.375   .     S
C030   C034    1.411   .     S
C030   N004    1.375   .     D
C031   C032    1.422   .     S
C032   C021    1.419   1_655 S
C032   C033    1.418   .     D
C033   C024    1.419   1_655 S
C033   C034    1.421   .     S
C034   C050    1.416   .     D
C035   C036    1.430   .     S
C035   C051    1.429   1_455 D
C036   C038    1.427   .     S
C036   C053    1.418   .     D
C037   C001    1.416   1_565 S
C037   C053    1.435   .     S
C037   C054    1.434   1_455 D
C038   C039    1.430   .     S
C039   C040    1.435   .     S
C039   C042    1.446   .     D
C040   C041    1.439   .     S
C040   C045    1.433   .     D
C041   C005    1.427   1_565 D
C041   C053    1.435   .     S
C042   C043    1.448   .     S
C042   N002    1.386   .     S
C043   C044    1.460   .     S
C043   C046    1.448   .     D
C044   C045    1.440   .     S
C044   C049    1.439   .     D
C045   C009    1.447   1_565 S
C046   C047    1.446   .     S
C046   N004    1.395   .     S
C047   C048    1.437   .     D
C047   C050    1.431   .     S
C048   C049    1.433   .     S
C048   C052    1.440   .     S
C049   C013    1.449   1_565 S
C050   C051    1.427   .     S
C051   C035    1.429   1_655 D
C051   C054    1.419   .     S
C052   C017    1.428   1_565 D
C052   C054    1.436   .     S
C054   C037    1.434   1_655 D
N001   Fe001   1.947   .     S
N002   Fe001   1.945   .     S
N003   Fe001   1.917   .     S
N004   Fe001   1.915   .     S
N005   H001    1.049   .     S
N005   Fe001   1.666   .     S
