data_e-0.4-opt
_audit_creation_date              2024-12-22
_audit_creation_method            'Materials Studio'
_symmetry_space_group_name_H-M    'P1'
_symmetry_Int_Tables_number       1
_symmetry_cell_setting            triclinic
loop_
_symmetry_equiv_pos_as_xyz
  x,y,z
_cell_length_a                    12.4736
_cell_length_b                    12.7367
_cell_length_c                    19.9881
_cell_angle_alpha                 90.0000
_cell_angle_beta                  90.0000
_cell_angle_gamma                 90.0000
loop_
_atom_site_label
_atom_site_type_symbol
_atom_site_fract_x
_atom_site_fract_y
_atom_site_fract_z
_atom_site_U_iso_or_equiv
_atom_site_adp_type
_atom_site_occupancy
C001   C     0.05273   0.04498   0.15527   1.00000  Uiso   1.00
C002   C     0.15313   0.09977   0.15510   1.00000  Uiso   1.00
C003   C     0.15253   0.21113   0.15422   1.00000  Uiso   1.00
C004   C     0.05273   0.26623   0.15345   1.00000  Uiso   1.00
C005   C     0.25397   0.04535   0.15592   1.00000  Uiso   1.00
C006   C     0.35409   0.10153   0.15609   1.00000  Uiso   1.00
C007   C     0.35308   0.21426   0.15553   1.00000  Uiso   1.00
C008   C     0.25176   0.26686   0.15458   1.00000  Uiso   1.00
C009   C     0.45407   0.04618   0.15693   1.00000  Uiso   1.00
C010   C     0.55274   0.10532   0.15690   1.00000  Uiso   1.00
C011   C     0.55274   0.21967   0.15690   1.00000  Uiso   1.00
C012   C     0.45083   0.27489   0.15662   1.00000  Uiso   1.00
C013   C     0.65139   0.04617   0.15654   1.00000  Uiso   1.00
C014   C     0.75136   0.10152   0.15550   1.00000  Uiso   1.00
C015   C     0.75236   0.21424   0.15466   1.00000  Uiso   1.00
C016   C     0.65460   0.27486   0.15574   1.00000  Uiso   1.00
C017   C     0.85148   0.04534   0.15540   1.00000  Uiso   1.00
C018   C     0.95232   0.09977   0.15477   1.00000  Uiso   1.00
C019   C     0.95290   0.21113   0.15376   1.00000  Uiso   1.00
C020   C     0.85368   0.26686   0.15360   1.00000  Uiso   1.00
C021   C     0.05273   0.37780   0.15309   1.00000  Uiso   1.00
C022   C     0.15098   0.43385   0.15383   1.00000  Uiso   1.00
C023   C     0.15102   0.54494   0.15445   1.00000  Uiso   1.00
C024   C     0.05276   0.60099   0.15422   1.00000  Uiso   1.00
C025   C     0.24999   0.37815   0.15461   1.00000  Uiso   1.00
C026   C     0.34770   0.43315   0.15637   1.00000  Uiso   1.00
C027   C     0.34778   0.54550   0.15748   1.00000  Uiso   1.00
C028   C     0.25011   0.60058   0.15603   1.00000  Uiso   1.00
C029   C     0.75775   0.43318   0.15443   1.00000  Uiso   1.00
C030   C     0.75769   0.54558   0.15547   1.00000  Uiso   1.00
C031   C     0.85545   0.37817   0.15322   1.00000  Uiso   1.00
C032   C     0.95450   0.43387   0.15298   1.00000  Uiso   1.00
C033   C     0.95448   0.54496   0.15353   1.00000  Uiso   1.00
C034   C     0.85541   0.60062   0.15446   1.00000  Uiso   1.00
C035   C     0.05275   0.71254   0.15528   1.00000  Uiso   1.00
C036   C     0.15260   0.76758   0.15612   1.00000  Uiso   1.00
C037   C     0.05274   0.93374   0.15588   1.00000  Uiso   1.00
C038   C     0.25183   0.71187   0.15662   1.00000  Uiso   1.00
C039   C     0.35325   0.76437   0.15738   1.00000  Uiso   1.00
C040   C     0.35415   0.87716   0.15713   1.00000  Uiso   1.00
C041   C     0.25400   0.93334   0.15650   1.00000  Uiso   1.00
C042   C     0.45105   0.70391   0.15879   1.00000  Uiso   1.00
C043   C     0.55278   0.75910   0.15859   1.00000  Uiso   1.00
C044   C     0.55275   0.87340   0.15776   1.00000  Uiso   1.00
C045   C     0.45409   0.93254   0.15741   1.00000  Uiso   1.00
C046   C     0.65454   0.70389   0.15771   1.00000  Uiso   1.00
C047   C     0.75226   0.76438   0.15620   1.00000  Uiso   1.00
C048   C     0.75133   0.87716   0.15637   1.00000  Uiso   1.00
C049   C     0.65140   0.93254   0.15697   1.00000  Uiso   1.00
C050   C     0.85366   0.71189   0.15542   1.00000  Uiso   1.00
C051   C     0.95291   0.76759   0.15555   1.00000  Uiso   1.00
C052   C     0.85147   0.93334   0.15591   1.00000  Uiso   1.00
C053   C     0.15315   0.87896   0.15628   1.00000  Uiso   1.00
C054   C     0.95233   0.87896   0.15588   1.00000  Uiso   1.00
N001   N     0.44574   0.38369   0.15703   1.00000  Uiso   1.00
N002   N     0.44612   0.59476   0.15988   1.00000  Uiso   1.00
N003   N     0.65975   0.38368   0.15542   1.00000  Uiso   1.00
N004   N     0.65947   0.59484   0.15838   1.00000  Uiso   1.00
N005   N     0.56642   0.54244   0.31015   1.00000  Uiso   1.00
Fe001  Fe    0.55291   0.48943   0.16853   1.00000  Uiso   1.00
O001   O     0.57209   0.50696   0.36714   1.00000  Uiso   1.00
O002   O     0.57005   0.63541   0.29205   1.00000  Uiso   1.00
O003   O     0.55344   0.46427   0.26150   1.00000  Uiso   1.00
loop_
_geom_bond_atom_site_label_1
_geom_bond_atom_site_label_2
_geom_bond_distance
_geom_bond_site_symmetry_2
_ccdc_geom_bond_type
C001   C002    1.434   .     D
C001   C018    1.434   1_455 S
C001   C037    1.417   1_545 S
C002   C003    1.419   .     S
C002   C005    1.436   .     S
C003   C004    1.429   .     D
C003   C008    1.427   .     S
C004   C019    1.429   1_455 S
C004   C021    1.421   .     S
C005   C006    1.439   .     S
C005   C041    1.427   1_545 D
C006   C007    1.436   .     S
C006   C009    1.433   .     D
C007   C008    1.431   .     S
C007   C012    1.443   .     D
C008   C025    1.418   .     D
C009   C010    1.443   .     S
C009   C045    1.447   1_545 S
C010   C011    1.456   .     D
C010   C013    1.443   .     S
C011   C012    1.453   .     S
C011   C016    1.452   .     S
C012   N001    1.387   .     S
C013   C014    1.433   .     D
C013   C049    1.447   1_545 S
C014   C015    1.436   .     S
C014   C017    1.439   .     S
C015   C016    1.443   .     S
C015   C020    1.431   .     D
C016   N003    1.387   .     D
C017   C018    1.436   .     S
C017   C052    1.427   1_545 D
C018   C001    1.434   1_655 S
C018   C019    1.419   .     D
C019   C004    1.429   1_655 S
C019   C020    1.427   .     S
C020   C031    1.418   .     S
C021   C022    1.418   .     D
C021   C032    1.418   1_455 S
C022   C023    1.415   .     S
C022   C025    1.424   .     S
C023   C024    1.418   .     D
C023   C028    1.425   .     S
C024   C033    1.419   1_455 S
C024   C035    1.421   .     S
C025   C026    1.406   .     S
C026   C027    1.431   .     S
C026   N001    1.376   .     D
C027   C028    1.406   .     S
C027   N002    1.379   .     D
C028   C038    1.418   .     D
C029   C030    1.432   .     S
C029   C031    1.406   .     D
C029   N003    1.376   .     S
C030   C034    1.406   .     S
C030   N004    1.378   .     D
C031   C032    1.425   .     S
C032   C021    1.418   1_655 S
C032   C033    1.415   .     D
C033   C024    1.419   1_655 S
C033   C034    1.425   .     S
C034   C050    1.417   .     D
C035   C036    1.429   .     S
C035   C051    1.429   1_455 D
C036   C038    1.427   .     S
C036   C053    1.419   .     D
C037   C001    1.417   1_565 S
C037   C053    1.434   .     S
C037   C054    1.434   1_455 D
C038   C039    1.431   .     S
C039   C040    1.437   .     S
C039   C042    1.443   .     D
C040   C041    1.440   .     S
C040   C045    1.432   .     D
C041   C005    1.427   1_565 D
C041   C053    1.436   .     S
C042   C043    1.451   .     S
C042   N002    1.392   .     S
C043   C044    1.456   .     S
C043   C046    1.451   .     D
C044   C045    1.443   .     S
C044   C049    1.443   .     D
C045   C009    1.447   1_565 S
C046   C047    1.442   .     S
C046   N004    1.390   .     S
C047   C048    1.436   .     D
C047   C050    1.431   .     S
C048   C049    1.432   .     S
C048   C052    1.440   .     S
C049   C013    1.447   1_565 S
C050   C051    1.427   .     S
C051   C035    1.429   1_655 D
C051   C054    1.419   .     S
C052   C017    1.427   1_565 D
C052   C054    1.436   .     S
C054   C037    1.434   1_655 D
N001   Fe001   1.911   .     S
N002   Fe001   1.898   .     S
N003   Fe001   1.913   .     S
N004   Fe001   1.900   .     S
N005   O001    1.228   .     D
N005   O002    1.239   .     S
N005   O003    1.401   .     S
Fe001  O003    1.886   .     S
