data_e-0.8-opt
_audit_creation_date              2024-12-22
_audit_creation_method            'Materials Studio'
_symmetry_space_group_name_H-M    'P1'
_symmetry_Int_Tables_number       1
_symmetry_cell_setting            triclinic
loop_
_symmetry_equiv_pos_as_xyz
  x,y,z
_cell_length_a                    12.4863
_cell_length_b                    12.7497
_cell_length_c                    20.0085
_cell_angle_alpha                 90.0000
_cell_angle_beta                  90.0000
_cell_angle_gamma                 90.0000
loop_
_atom_site_label
_atom_site_type_symbol
_atom_site_fract_x
_atom_site_fract_y
_atom_site_fract_z
_atom_site_U_iso_or_equiv
_atom_site_adp_type
_atom_site_occupancy
C001   C     0.04984   0.04541   0.15553   1.00000  Uiso   1.00
C002   C     0.15016   0.10011   0.15505   1.00000  Uiso   1.00
C003   C     0.14947   0.21141   0.15365   1.00000  Uiso   1.00
C004   C     0.04976   0.26653   0.15282   1.00000  Uiso   1.00
C005   C     0.25097   0.04580   0.15590   1.00000  Uiso   1.00
C006   C     0.35112   0.10192   0.15658   1.00000  Uiso   1.00
C007   C     0.34995   0.21463   0.15588   1.00000  Uiso   1.00
C008   C     0.24855   0.26705   0.15378   1.00000  Uiso   1.00
C009   C     0.45113   0.04666   0.15796   1.00000  Uiso   1.00
C010   C     0.54983   0.10583   0.15862   1.00000  Uiso   1.00
C011   C     0.54979   0.22018   0.15876   1.00000  Uiso   1.00
C012   C     0.44761   0.27515   0.15781   1.00000  Uiso   1.00
C013   C     0.64858   0.04662   0.15848   1.00000  Uiso   1.00
C014   C     0.74861   0.10190   0.15758   1.00000  Uiso   1.00
C015   C     0.74975   0.21456   0.15695   1.00000  Uiso   1.00
C016   C     0.65211   0.27520   0.15817   1.00000  Uiso   1.00
C017   C     0.84872   0.04580   0.15691   1.00000  Uiso   1.00
C018   C     0.94949   0.10015   0.15570   1.00000  Uiso   1.00
C019   C     0.95010   0.21142   0.15443   1.00000  Uiso   1.00
C020   C     0.85097   0.26711   0.15514   1.00000  Uiso   1.00
C021   C     0.04966   0.37814   0.15132   1.00000  Uiso   1.00
C022   C     0.14759   0.43426   0.15083   1.00000  Uiso   1.00
C023   C     0.14760   0.54541   0.15088   1.00000  Uiso   1.00
C024   C     0.04966   0.60153   0.15142   1.00000  Uiso   1.00
C025   C     0.24630   0.37833   0.15256   1.00000  Uiso   1.00
C026   C     0.34319   0.43358   0.15504   1.00000  Uiso   1.00
C027   C     0.34320   0.54609   0.15517   1.00000  Uiso   1.00
C028   C     0.24630   0.60134   0.15270   1.00000  Uiso   1.00
C029   C     0.75595   0.43348   0.15655   1.00000  Uiso   1.00
C030   C     0.75595   0.54619   0.15665   1.00000  Uiso   1.00
C031   C     0.85301   0.37840   0.15434   1.00000  Uiso   1.00
C032   C     0.95171   0.43428   0.15213   1.00000  Uiso   1.00
C033   C     0.95171   0.54539   0.15218   1.00000  Uiso   1.00
C034   C     0.85302   0.60127   0.15446   1.00000  Uiso   1.00
C035   C     0.04976   0.71314   0.15297   1.00000  Uiso   1.00
C036   C     0.14948   0.76827   0.15382   1.00000  Uiso   1.00
C037   C     0.04984   0.93427   0.15558   1.00000  Uiso   1.00
C038   C     0.24856   0.71262   0.15399   1.00000  Uiso   1.00
C039   C     0.34997   0.76503   0.15610   1.00000  Uiso   1.00
C040   C     0.35112   0.87775   0.15670   1.00000  Uiso   1.00
C041   C     0.25098   0.93387   0.15596   1.00000  Uiso   1.00
C042   C     0.44762   0.70449   0.15809   1.00000  Uiso   1.00
C043   C     0.54979   0.75948   0.15900   1.00000  Uiso   1.00
C044   C     0.54984   0.87383   0.15874   1.00000  Uiso   1.00
C045   C     0.45114   0.93301   0.15802   1.00000  Uiso   1.00
C046   C     0.65211   0.70445   0.15844   1.00000  Uiso   1.00
C047   C     0.74975   0.76511   0.15714   1.00000  Uiso   1.00
C048   C     0.74861   0.87777   0.15768   1.00000  Uiso   1.00
C049   C     0.64858   0.93305   0.15854   1.00000  Uiso   1.00
C050   C     0.85097   0.71256   0.15532   1.00000  Uiso   1.00
C051   C     0.95010   0.76825   0.15459   1.00000  Uiso   1.00
C052   C     0.84872   0.93387   0.15696   1.00000  Uiso   1.00
C053   C     0.15016   0.87956   0.15516   1.00000  Uiso   1.00
C054   C     0.94949   0.87953   0.15580   1.00000  Uiso   1.00
N001   N     0.44204   0.38453   0.15863   1.00000  Uiso   1.00
N002   N     0.44203   0.59513   0.15894   1.00000  Uiso   1.00
N003   N     0.65753   0.38404   0.15850   1.00000  Uiso   1.00
N004   N     0.65756   0.59562   0.15878   1.00000  Uiso   1.00
N005   N     0.55940   0.48619   0.27707   1.00000  Uiso   1.00
O001   O     0.65699   0.48723   0.29892   1.00000  Uiso   1.00
Fe001  Fe    0.54951   0.48969   0.16598   1.00000  Uiso   1.00
H001   H     0.51400   0.55204   0.28814   1.00000  Uiso   1.00
H002   H     0.51668   0.41793   0.28612   1.00000  Uiso   1.00
loop_
_geom_bond_atom_site_label_1
_geom_bond_atom_site_label_2
_geom_bond_distance
_geom_bond_site_symmetry_2
_ccdc_geom_bond_type
C001   C002    1.434   .     D
C001   C018    1.434   1_455 S
C001   C037    1.417   1_545 S
C002   C003    1.419   .     S
C002   C005    1.437   .     S
C003   C004    1.430   .     D
C003   C008    1.426   .     S
C004   C019    1.429   1_455 S
C004   C021    1.423   .     S
C005   C006    1.441   .     S
C005   C041    1.427   1_545 D
C006   C007    1.437   .     S
C006   C009    1.434   .     D
C007   C008    1.432   .     S
C007   C012    1.443   .     D
C008   C025    1.419   .     D
C009   C010    1.445   .     S
C009   C045    1.449   1_545 S
C010   C011    1.458   .     D
C010   C013    1.446   .     S
C011   C012    1.456   .     S
C011   C016    1.458   .     S
C012   N001    1.396   .     S
C013   C014    1.434   .     D
C013   C049    1.448   1_545 S
C014   C015    1.437   .     S
C014   C017    1.440   .     S
C015   C016    1.444   .     S
C015   C020    1.431   .     D
C016   N003    1.389   .     D
C017   C018    1.437   .     S
C017   C052    1.427   1_545 D
C018   C001    1.434   1_655 S
C018   C019    1.419   .     D
C019   C004    1.429   1_655 S
C019   C020    1.427   .     S
C020   C031    1.419   .     S
C021   C022    1.417   .     D
C021   C032    1.417   1_455 S
C022   C023    1.417   .     S
C022   C025    1.424   .     S
C023   C024    1.417   .     D
C023   C028    1.424   .     S
C024   C033    1.417   1_455 S
C024   C035    1.423   .     S
C025   C026    1.401   .     S
C026   C027    1.434   .     S
C026   N001    1.386   .     D
C027   C028    1.401   .     S
C027   N002    1.385   .     D
C028   C038    1.419   .     D
C029   C030    1.437   .     S
C029   C031    1.401   .     D
C029   N003    1.382   .     S
C030   C034    1.401   .     S
C030   N004    1.381   .     D
C031   C032    1.424   .     S
C032   C021    1.417   1_655 S
C032   C033    1.417   .     D
C033   C024    1.417   1_655 S
C033   C034    1.424   .     S
C034   C050    1.419   .     D
C035   C036    1.430   .     S
C035   C051    1.429   1_455 D
C036   C038    1.426   .     S
C036   C053    1.419   .     D
C037   C001    1.417   1_565 S
C037   C053    1.434   .     S
C037   C054    1.434   1_455 D
C038   C039    1.432   .     S
C039   C040    1.437   .     S
C039   C042    1.444   .     D
C040   C041    1.441   .     S
C040   C045    1.434   .     D
C041   C005    1.427   1_565 D
C041   C053    1.437   .     S
C042   C043    1.456   .     S
C042   N002    1.396   .     S
C043   C044    1.458   .     S
C043   C046    1.458   .     D
C044   C045    1.445   .     S
C044   C049    1.446   .     D
C045   C009    1.449   1_565 S
C046   C047    1.444   .     S
C046   N004    1.389   .     S
C047   C048    1.437   .     D
C047   C050    1.431   .     S
C048   C049    1.434   .     S
C048   C052    1.440   .     S
C049   C013    1.448   1_565 S
C050   C051    1.427   .     S
C051   C035    1.429   1_655 D
C051   C054    1.419   .     S
C052   C017    1.427   1_565 D
C052   C054    1.437   .     S
C054   C037    1.434   1_655 D
N001   Fe001   1.903   .     S
N002   Fe001   1.905   .     S
N003   Fe001   1.912   .     S
N004   Fe001   1.914   .     S
N005   O001    1.295   .     S
N005   Fe001   2.226   .     S
N005   H001    1.037   .     S
N005   H002    1.037   .     S
