data_e+0.2-opt
_audit_creation_date              2024-12-22
_audit_creation_method            'Materials Studio'
_symmetry_space_group_name_H-M    'P1'
_symmetry_Int_Tables_number       1
_symmetry_cell_setting            triclinic
loop_
_symmetry_equiv_pos_as_xyz
  x,y,z
_cell_length_a                    8.3998
_cell_length_b                    8.3998
_cell_length_c                    20.0499
_cell_angle_alpha                 90.0000
_cell_angle_beta                  90.0000
_cell_angle_gamma                 90.0000
loop_
_atom_site_label
_atom_site_type_symbol
_atom_site_fract_x
_atom_site_fract_y
_atom_site_fract_z
_atom_site_U_iso_or_equiv
_atom_site_adp_type
_atom_site_occupancy
C001   C     0.49869   0.07253   0.13680   1.00000  Uiso   1.00
C002   C     0.35203   0.15428   0.13653   1.00000  Uiso   1.00
C003   C     0.64543   0.15413   0.13628   1.00000  Uiso   1.00
C004   C     0.79389   0.90267   0.13643   1.00000  Uiso   1.00
C005   C     0.79403   0.06985   0.13614   1.00000  Uiso   1.00
C006   C     0.91514   0.19091   0.13607   1.00000  Uiso   1.00
C007   C     0.83099   0.33959   0.13628   1.00000  Uiso   1.00
C008   C     0.20344   0.06995   0.13619   1.00000  Uiso   1.00
C009   C     0.08235   0.19100   0.13611   1.00000  Uiso   1.00
C010   C     0.16643   0.33971   0.13650   1.00000  Uiso   1.00
C011   C     0.08494   0.48648   0.13697   1.00000  Uiso   1.00
C012   C     0.16671   0.63305   0.13680   1.00000  Uiso   1.00
C013   C     0.35200   0.81842   0.13672   1.00000  Uiso   1.00
C014   C     0.20347   0.90274   0.13631   1.00000  Uiso   1.00
C015   C     0.08225   0.78166   0.13646   1.00000  Uiso   1.00
C016   C     0.64532   0.81844   0.13687   1.00000  Uiso   1.00
C017   C     0.83066   0.63302   0.13688   1.00000  Uiso   1.00
C018   C     0.91512   0.78161   0.13655   1.00000  Uiso   1.00
C019   C     0.49865   0.90001   0.13703   1.00000  Uiso   1.00
C020   C     0.91244   0.48644   0.13694   1.00000  Uiso   1.00
N001   N     0.66625   0.31893   0.13575   1.00000  Uiso   1.00
N002   N     0.33120   0.31922   0.13633   1.00000  Uiso   1.00
N003   N     0.33123   0.65386   0.13670   1.00000  Uiso   1.00
N004   N     0.66601   0.65382   0.13684   1.00000  Uiso   1.00
N005   N     0.50537   0.47019   0.23759   1.00000  Uiso   1.00
Fe001  Fe    0.49853   0.48729   0.14278   1.00000  Uiso   1.00
O001   O     0.48402   0.61983   0.27653   1.00000  Uiso   1.00
H001   H     0.41669   0.39381   0.25265   1.00000  Uiso   1.00
H002   H     0.50559   0.58954   0.32297   1.00000  Uiso   1.00
H003   H     0.61483   0.42448   0.25031   1.00000  Uiso   1.00
loop_
_geom_bond_atom_site_label_1
_geom_bond_atom_site_label_2
_geom_bond_distance
_geom_bond_site_symmetry_2
_ccdc_geom_bond_type
C001   C002    1.410   .     D
C001   C003    1.410   .     S
C001   C019    1.449   1_545 S
C002   C008    1.435   .     S
C002   N002    1.396   .     S
C003   C005    1.435   .     D
C003   N001    1.395   .     S
C004   C005    1.404   1_565 S
C004   C016    1.435   .     D
C004   C018    1.439   .     S
C005   C004    1.404   1_545 S
C005   C006    1.438   .     S
C006   C007    1.435   .     S
C006   C009    1.404   1_655 D
C007   C020    1.411   .     S
C007   N001    1.395   .     D
C008   C009    1.438   .     S
C008   C014    1.404   1_545 D
C009   C006    1.404   1_455 D
C009   C010    1.435   .     S
C010   C011    1.410   .     S
C010   N002    1.395   .     D
C011   C012    1.410   .     S
C011   C020    1.449   1_455 D
C012   C015    1.436   .     S
C012   N003    1.393   .     D
C013   C014    1.435   .     S
C013   C019    1.410   .     D
C013   N003    1.393   .     S
C014   C008    1.404   1_565 D
C014   C015    1.439   .     S
C015   C018    1.404   1_455 D
C016   C019    1.410   .     S
C016   N004    1.394   .     S
C017   C018    1.436   .     S
C017   C020    1.410   .     S
C017   N004    1.394   .     D
C018   C015    1.404   1_655 D
C019   C001    1.449   1_565 S
C020   C011    1.449   1_655 D
N001   Fe001   2.001   .     S
N002   Fe001   1.996   .     S
N003   Fe001   1.987   .     S
N004   Fe001   1.987   .     S
N005   Fe001   1.907   .     S
N005   O001    1.491   .     S
N005   H001    1.029   .     S
N005   H003    1.029   .     S
O001   H002    0.982   .     S
