data_e-0.4-opt
_audit_creation_date              2024-12-22
_audit_creation_method            'Materials Studio'
_symmetry_space_group_name_H-M    'P1'
_symmetry_Int_Tables_number       1
_symmetry_cell_setting            triclinic
loop_
_symmetry_equiv_pos_as_xyz
  x,y,z
_cell_length_a                    8.4044
_cell_length_b                    8.4044
_cell_length_c                    20.0609
_cell_angle_alpha                 90.0000
_cell_angle_beta                  90.0000
_cell_angle_gamma                 90.0000
loop_
_atom_site_label
_atom_site_type_symbol
_atom_site_fract_x
_atom_site_fract_y
_atom_site_fract_z
_atom_site_U_iso_or_equiv
_atom_site_adp_type
_atom_site_occupancy
C001   C     0.50052   0.08633   0.13853   1.00000  Uiso   1.00
C002   C     0.35374   0.16794   0.13831   1.00000  Uiso   1.00
C003   C     0.64727   0.16794   0.13831   1.00000  Uiso   1.00
C004   C     0.79619   0.91575   0.13727   1.00000  Uiso   1.00
C005   C     0.79623   0.08386   0.13758   1.00000  Uiso   1.00
C006   C     0.91647   0.20396   0.13767   1.00000  Uiso   1.00
C007   C     0.83261   0.35291   0.13828   1.00000  Uiso   1.00
C008   C     0.20479   0.08386   0.13758   1.00000  Uiso   1.00
C009   C     0.08455   0.20397   0.13767   1.00000  Uiso   1.00
C010   C     0.16842   0.35290   0.13828   1.00000  Uiso   1.00
C011   C     0.08684   0.49969   0.13837   1.00000  Uiso   1.00
C012   C     0.16835   0.64647   0.13764   1.00000  Uiso   1.00
C013   C     0.35371   0.83218   0.13748   1.00000  Uiso   1.00
C014   C     0.20483   0.91575   0.13727   1.00000  Uiso   1.00
C015   C     0.08459   0.79534   0.13723   1.00000  Uiso   1.00
C016   C     0.64732   0.83217   0.13748   1.00000  Uiso   1.00
C017   C     0.83265   0.64648   0.13764   1.00000  Uiso   1.00
C018   C     0.91643   0.79534   0.13723   1.00000  Uiso   1.00
C019   C     0.50050   0.91372   0.13801   1.00000  Uiso   1.00
C020   C     0.91418   0.49967   0.13837   1.00000  Uiso   1.00
N001   N     0.66832   0.33217   0.13773   1.00000  Uiso   1.00
N002   N     0.33268   0.33215   0.13773   1.00000  Uiso   1.00
N003   N     0.33298   0.66758   0.13644   1.00000  Uiso   1.00
N004   N     0.66805   0.66759   0.13644   1.00000  Uiso   1.00
N005   N     0.50050   0.51924   0.23603   1.00000  Uiso   1.00
Fe001  Fe    0.50051   0.50230   0.15448   1.00000  Uiso   1.00
O001   O     0.50047   0.56132   0.29186   1.00000  Uiso   1.00
loop_
_geom_bond_atom_site_label_1
_geom_bond_atom_site_label_2
_geom_bond_distance
_geom_bond_site_symmetry_2
_ccdc_geom_bond_type
C001   C002    1.411   .     D
C001   C003    1.411   .     S
C001   C019    1.451   1_545 S
C002   C008    1.438   .     S
C002   N002    1.391   .     S
C003   C005    1.438   .     D
C003   N001    1.392   .     S
C004   C005    1.413   1_565 S
C004   C016    1.435   .     D
C004   C018    1.430   .     S
C005   C004    1.413   1_545 S
C005   C006    1.428   .     S
C006   C007    1.437   .     S
C006   C009    1.413   1_655 D
C007   C020    1.411   .     S
C007   N001    1.392   .     D
C008   C009    1.428   .     S
C008   C014    1.413   1_545 D
C009   C006    1.413   1_455 D
C009   C010    1.437   .     S
C010   C011    1.411   .     S
C010   N002    1.392   .     D
C011   C012    1.411   .     S
C011   C020    1.451   1_455 D
C012   C015    1.436   .     S
C012   N003    1.395   .     D
C013   C014    1.435   .     S
C013   C019    1.411   .     D
C013   N003    1.394   .     S
C014   C008    1.413   1_565 D
C014   C015    1.430   .     S
C015   C018    1.413   1_455 D
C016   C019    1.411   .     S
C016   N004    1.394   .     S
C017   C018    1.436   .     S
C017   C020    1.411   .     S
C017   N004    1.395   .     D
C018   C015    1.413   1_655 D
C019   C001    1.451   1_565 S
C020   C011    1.451   1_655 D
N001   Fe001   2.036   .     S
N002   Fe001   2.036   .     S
N003   Fe001   2.011   .     S
N004   Fe001   2.011   .     S
N005   Fe001   1.642   .     S
N005   O001    1.175   .     D
