data_e-0.6-opt
_audit_creation_date              2024-12-22
_audit_creation_method            'Materials Studio'
_symmetry_space_group_name_H-M    'P1'
_symmetry_Int_Tables_number       1
_symmetry_cell_setting            triclinic
loop_
_symmetry_equiv_pos_as_xyz
  x,y,z
_cell_length_a                    8.3994
_cell_length_b                    8.3994
_cell_length_c                    20.0487
_cell_angle_alpha                 90.0000
_cell_angle_beta                  90.0000
_cell_angle_gamma                 90.0000
loop_
_atom_site_label
_atom_site_type_symbol
_atom_site_fract_x
_atom_site_fract_y
_atom_site_fract_z
_atom_site_U_iso_or_equiv
_atom_site_adp_type
_atom_site_occupancy
C001   C     0.50277   0.08500   0.14096   1.00000  Uiso   1.00
C002   C     0.35649   0.16706   0.14109   1.00000  Uiso   1.00
C003   C     0.64934   0.16667   0.13974   1.00000  Uiso   1.00
C004   C     0.79828   0.91513   0.13792   1.00000  Uiso   1.00
C005   C     0.79833   0.08215   0.13826   1.00000  Uiso   1.00
C006   C     0.91900   0.20331   0.13815   1.00000  Uiso   1.00
C007   C     0.83408   0.35210   0.13898   1.00000  Uiso   1.00
C008   C     0.20758   0.08226   0.13906   1.00000  Uiso   1.00
C009   C     0.08620   0.20380   0.13857   1.00000  Uiso   1.00
C010   C     0.17012   0.35235   0.14021   1.00000  Uiso   1.00
C011   C     0.08828   0.49878   0.13975   1.00000  Uiso   1.00
C012   C     0.17005   0.64534   0.13973   1.00000  Uiso   1.00
C013   C     0.35632   0.83031   0.14077   1.00000  Uiso   1.00
C014   C     0.20740   0.91531   0.13892   1.00000  Uiso   1.00
C015   C     0.08608   0.79386   0.13820   1.00000  Uiso   1.00
C016   C     0.64922   0.83051   0.13892   1.00000  Uiso   1.00
C017   C     0.83405   0.64524   0.13813   1.00000  Uiso   1.00
C018   C     0.91890   0.79409   0.13762   1.00000  Uiso   1.00
C019   C     0.50272   0.91223   0.14063   1.00000  Uiso   1.00
C020   C     0.91586   0.49869   0.13900   1.00000  Uiso   1.00
N001   N     0.66983   0.33085   0.13967   1.00000  Uiso   1.00
N002   N     0.33541   0.33186   0.14219   1.00000  Uiso   1.00
N003   N     0.33513   0.66575   0.14171   1.00000  Uiso   1.00
N004   N     0.66988   0.66643   0.13815   1.00000  Uiso   1.00
N005   N     0.41011   0.53327   0.29203   1.00000  Uiso   1.00
Fe001  Fe    0.50010   0.49830   0.15123   1.00000  Uiso   1.00
O001   O     0.53472   0.50191   0.24055   1.00000  Uiso   1.00
O002   O     0.47218   0.56560   0.34501   1.00000  Uiso   1.00
O003   O     0.27057   0.52142   0.27551   1.00000  Uiso   1.00
loop_
_geom_bond_atom_site_label_1
_geom_bond_atom_site_label_2
_geom_bond_distance
_geom_bond_site_symmetry_2
_ccdc_geom_bond_type
C001   C002    1.409   .     D
C001   C003    1.409   .     S
C001   C019    1.451   1_545 S
C002   C008    1.440   .     S
C002   N002    1.396   .     S
C003   C005    1.439   .     D
C003   N001    1.390   .     S
C004   C005    1.403   1_565 S
C004   C016    1.440   .     D
C004   C018    1.435   .     S
C005   C004    1.403   1_545 S
C005   C006    1.436   .     S
C006   C007    1.439   .     S
C006   C009    1.404   1_655 D
C007   C020    1.410   .     S
C007   N001    1.391   .     D
C008   C009    1.443   .     S
C008   C014    1.402   1_545 D
C009   C006    1.404   1_455 D
C009   C010    1.433   .     S
C010   C011    1.409   .     S
C010   N002    1.400   .     D
C011   C012    1.410   .     S
C011   C020    1.448   1_455 D
C012   C015    1.433   .     S
C012   N003    1.398   .     D
C013   C014    1.441   .     S
C013   C019    1.409   .     D
C013   N003    1.394   .     S
C014   C008    1.402   1_565 D
C014   C015    1.442   .     S
C015   C018    1.404   1_455 D
C016   C019    1.409   .     S
C016   N004    1.389   .     S
C017   C018    1.439   .     S
C017   C020    1.410   .     S
C017   N004    1.390   .     D
C018   C015    1.404   1_655 D
C019   C001    1.451   1_565 S
C020   C011    1.448   1_655 D
N001   Fe001   2.016   .     S
N002   Fe001   1.975   .     S
N003   Fe001   1.984   .     S
N004   Fe001   2.024   .     S
N005   O001    1.493   .     S
N005   O002    1.214   .     S
N005   O003    1.222   .     D
Fe001  O001    1.814   .     S
