data_e+0.2-opt
_audit_creation_date              2024-12-22
_audit_creation_method            'Materials Studio'
_symmetry_space_group_name_H-M    'P1'
_symmetry_Int_Tables_number       1
_symmetry_cell_setting            triclinic
loop_
_symmetry_equiv_pos_as_xyz
  x,y,z
_cell_length_a                    12.4751
_cell_length_b                    12.7382
_cell_length_c                    19.9905
_cell_angle_alpha                 90.0000
_cell_angle_beta                  90.0000
_cell_angle_gamma                 90.0000
loop_
_atom_site_label
_atom_site_type_symbol
_atom_site_fract_x
_atom_site_fract_y
_atom_site_fract_z
_atom_site_U_iso_or_equiv
_atom_site_adp_type
_atom_site_occupancy
C001   C     0.05167   0.04536   0.15473   1.00000  Uiso   1.00
C002   C     0.15215   0.10013   0.15438   1.00000  Uiso   1.00
C003   C     0.15154   0.21152   0.15305   1.00000  Uiso   1.00
C004   C     0.05164   0.26658   0.15223   1.00000  Uiso   1.00
C005   C     0.25299   0.04580   0.15544   1.00000  Uiso   1.00
C006   C     0.35311   0.10197   0.15629   1.00000  Uiso   1.00
C007   C     0.35209   0.21468   0.15551   1.00000  Uiso   1.00
C008   C     0.25072   0.26721   0.15327   1.00000  Uiso   1.00
C009   C     0.45323   0.04663   0.15795   1.00000  Uiso   1.00
C010   C     0.55169   0.10547   0.15887   1.00000  Uiso   1.00
C011   C     0.55168   0.22031   0.15947   1.00000  Uiso   1.00
C012   C     0.45003   0.27523   0.15798   1.00000  Uiso   1.00
C013   C     0.65017   0.04663   0.15845   1.00000  Uiso   1.00
C014   C     0.75028   0.10201   0.15714   1.00000  Uiso   1.00
C015   C     0.75128   0.21474   0.15668   1.00000  Uiso   1.00
C016   C     0.65334   0.27534   0.15888   1.00000  Uiso   1.00
C017   C     0.85037   0.04581   0.15619   1.00000  Uiso   1.00
C018   C     0.95119   0.10014   0.15487   1.00000  Uiso   1.00
C019   C     0.95178   0.21153   0.15371   1.00000  Uiso   1.00
C020   C     0.85259   0.26728   0.15457   1.00000  Uiso   1.00
C021   C     0.05162   0.37808   0.15091   1.00000  Uiso   1.00
C022   C     0.14995   0.43408   0.15057   1.00000  Uiso   1.00
C023   C     0.14995   0.54541   0.15075   1.00000  Uiso   1.00
C024   C     0.05162   0.60141   0.15126   1.00000  Uiso   1.00
C025   C     0.24875   0.37855   0.15213   1.00000  Uiso   1.00
C026   C     0.34655   0.43373   0.15457   1.00000  Uiso   1.00
C027   C     0.34656   0.54575   0.15471   1.00000  Uiso   1.00
C028   C     0.24876   0.60093   0.15244   1.00000  Uiso   1.00
C029   C     0.75678   0.43376   0.15645   1.00000  Uiso   1.00
C030   C     0.75678   0.54573   0.15664   1.00000  Uiso   1.00
C031   C     0.85453   0.37860   0.15377   1.00000  Uiso   1.00
C032   C     0.95331   0.43410   0.15162   1.00000  Uiso   1.00
C033   C     0.95331   0.54540   0.15181   1.00000  Uiso   1.00
C034   C     0.85453   0.60089   0.15412   1.00000  Uiso   1.00
C035   C     0.05165   0.71290   0.15278   1.00000  Uiso   1.00
C036   C     0.15154   0.76796   0.15358   1.00000  Uiso   1.00
C037   C     0.05167   0.93413   0.15492   1.00000  Uiso   1.00
C038   C     0.25072   0.71227   0.15375   1.00000  Uiso   1.00
C039   C     0.35210   0.76479   0.15592   1.00000  Uiso   1.00
C040   C     0.35311   0.87750   0.15655   1.00000  Uiso   1.00
C041   C     0.25299   0.93368   0.15560   1.00000  Uiso   1.00
C042   C     0.45004   0.70423   0.15834   1.00000  Uiso   1.00
C043   C     0.55168   0.75916   0.15984   1.00000  Uiso   1.00
C044   C     0.55169   0.87401   0.15911   1.00000  Uiso   1.00
C045   C     0.45323   0.93285   0.15807   1.00000  Uiso   1.00
C046   C     0.65335   0.70413   0.15931   1.00000  Uiso   1.00
C047   C     0.75129   0.76473   0.15714   1.00000  Uiso   1.00
C048   C     0.75028   0.87747   0.15743   1.00000  Uiso   1.00
C049   C     0.65017   0.93285   0.15858   1.00000  Uiso   1.00
C050   C     0.85261   0.71221   0.15509   1.00000  Uiso   1.00
C051   C     0.95179   0.76795   0.15426   1.00000  Uiso   1.00
C052   C     0.85037   0.93367   0.15636   1.00000  Uiso   1.00
C053   C     0.15215   0.87936   0.15472   1.00000  Uiso   1.00
C054   C     0.95120   0.87934   0.15522   1.00000  Uiso   1.00
N001   N     0.44459   0.38429   0.15834   1.00000  Uiso   1.00
N002   N     0.44461   0.59515   0.15858   1.00000  Uiso   1.00
N003   N     0.65883   0.38433   0.15961   1.00000  Uiso   1.00
N004   N     0.65883   0.59514   0.16000   1.00000  Uiso   1.00
N005   N     0.55012   0.48885   0.26093   1.00000  Uiso   1.00
O001   O     0.62584   0.48895   0.30244   1.00000  Uiso   1.00
Fe001  Fe    0.55170   0.48964   0.17324   1.00000  Uiso   1.00
H001   H     0.47398   0.48789   0.28343   1.00000  Uiso   1.00
loop_
_geom_bond_atom_site_label_1
_geom_bond_atom_site_label_2
_geom_bond_distance
_geom_bond_site_symmetry_2
_ccdc_geom_bond_type
C001   C002    1.435   .     D
C001   C018    1.435   1_455 S
C001   C037    1.417   1_545 S
C002   C003    1.419   .     S
C002   C005    1.436   .     S
C003   C004    1.430   .     D
C003   C008    1.426   .     S
C004   C019    1.430   1_455 S
C004   C021    1.421   .     S
C005   C006    1.440   .     S
C005   C041    1.428   1_545 D
C006   C007    1.436   .     S
C006   C009    1.435   .     D
C007   C008    1.431   .     S
C007   C012    1.446   .     D
C008   C025    1.419   .     D
C009   C010    1.439   .     S
C009   C045    1.449   1_545 S
C010   C011    1.463   .     D
C010   C013    1.439   .     S
C011   C012    1.448   .     S
C011   C016    1.449   .     S
C012   N001    1.391   .     S
C013   C014    1.435   .     D
C013   C049    1.449   1_545 S
C014   C015    1.436   .     S
C014   C017    1.439   .     S
C015   C016    1.446   .     S
C015   C020    1.431   .     D
C016   N003    1.390   .     D
C017   C018    1.436   .     S
C017   C052    1.428   1_545 D
C018   C001    1.435   1_655 S
C018   C019    1.419   .     D
C019   C004    1.430   1_655 S
C019   C020    1.427   .     S
C020   C031    1.418   .     S
C021   C022    1.419   .     D
C021   C032    1.419   1_455 S
C022   C023    1.418   .     S
C022   C025    1.421   .     S
C023   C024    1.419   .     D
C023   C028    1.421   .     S
C024   C033    1.419   1_455 S
C024   C035    1.421   .     S
C025   C026    1.409   .     S
C026   C027    1.427   .     S
C026   N001    1.378   .     D
C027   C028    1.409   .     S
C027   N002    1.378   .     D
C028   C038    1.419   .     D
C029   C030    1.426   .     S
C029   C031    1.408   .     D
C029   N003    1.376   .     S
C030   C034    1.408   .     S
C030   N004    1.376   .     D
C031   C032    1.421   .     S
C032   C021    1.419   1_655 S
C032   C033    1.418   .     D
C033   C024    1.419   1_655 S
C033   C034    1.421   .     S
C034   C050    1.418   .     D
C035   C036    1.430   .     S
C035   C051    1.430   1_455 D
C036   C038    1.426   .     S
C036   C053    1.419   .     D
C037   C001    1.417   1_565 S
C037   C053    1.435   .     S
C037   C054    1.435   1_455 D
C038   C039    1.431   .     S
C039   C040    1.436   .     S
C039   C042    1.446   .     D
C040   C041    1.440   .     S
C040   C045    1.435   .     D
C041   C005    1.428   1_565 D
C041   C053    1.436   .     S
C042   C043    1.448   .     S
C042   N002    1.391   .     S
C043   C044    1.463   .     S
C043   C046    1.449   .     D
C044   C045    1.439   .     S
C044   C049    1.439   .     D
C045   C009    1.449   1_565 S
C046   C047    1.446   .     S
C046   N004    1.390   .     S
C047   C048    1.436   .     D
C047   C050    1.431   .     S
C048   C049    1.435   .     S
C048   C052    1.440   .     S
C049   C013    1.449   1_565 S
C050   C051    1.427   .     S
C051   C035    1.430   1_655 D
C051   C054    1.419   .     S
C052   C017    1.428   1_565 D
C052   C054    1.436   .     S
C054   C037    1.435   1_655 D
N001   Fe001   1.917   .     S
N002   Fe001   1.918   .     S
N003   Fe001   1.913   .     S
N004   Fe001   1.914   .     S
N005   O001    1.257   .     D
N005   Fe001   1.753   .     S
N005   H001    1.051   .     S
